
  Mrv1808 03272221002D          

 41 45  0  0  1  0            999 V2000
   -4.5110   -0.5487    0.0000 C   0  0  0  0  0  0  0  0  0  0  0  0
   -3.7887   -0.9473    0.0000 C   0  0  2  0  0  0  0  0  0  0  0  0
   -3.0823   -0.5211    0.0000 C   0  0  0  0  0  0  0  0  0  0  0  0
   -2.3600   -0.9197    0.0000 N   0  0  0  0  0  0  0  0  0  0  0  0
   -1.6536   -0.4935    0.0000 C   0  0  0  0  0  0  0  0  0  0  0  0
   -0.9313   -0.8921    0.0000 O   0  0  0  0  0  0  0  0  0  0  0  0
   -1.6696    0.3313    0.0000 N   0  0  0  0  0  0  0  0  0  0  0  0
   -0.9632    0.7576    0.0000 C   0  0  0  0  0  0  0  0  0  0  0  0
   -0.9791    1.5824    0.0000 C   0  0  0  0  0  0  0  0  0  0  0  0
   -0.2728    2.0086    0.0000 C   0  0  0  0  0  0  0  0  0  0  0  0
    0.4495    1.6100    0.0000 C   0  0  0  0  0  0  0  0  0  0  0  0
    1.1559    2.0362    0.0000 C   0  0  0  0  0  0  0  0  0  0  0  0
    1.1400    2.8611    0.0000 N   0  0  0  0  0  0  0  0  0  0  0  0
    1.8464    3.2873    0.0000 C   0  0  0  0  0  0  0  0  0  0  0  0
    1.8304    4.1121    0.0000 N   0  0  0  0  0  0  0  0  0  0  0  0
    1.1081    4.5108    0.0000 C   0  0  0  0  0  0  0  0  0  0  0  0
    1.0922    5.3356    0.0000 C   0  0  0  0  0  0  0  0  0  0  0  0
    1.7986    5.7618    0.0000 O   0  0  0  0  0  0  0  0  0  0  0  0
    2.5209    5.3632    0.0000 C   0  0  0  0  0  0  0  0  0  0  0  0
    2.5368    4.5384    0.0000 C   0  0  0  0  0  0  0  0  0  0  0  0
    2.5687    2.8887    0.0000 C   0  0  0  0  0  0  0  0  0  0  0  0
    3.3482    3.1587    0.0000 C   0  0  0  0  0  0  0  0  0  0  0  0
    3.8459    2.5008    0.0000 N   0  0  0  0  0  0  0  0  0  0  0  0
    3.3740    1.8241    0.0000 N   0  0  0  0  0  0  0  0  0  0  0  0
    3.6440    1.0445    0.0000 C   0  0  0  0  0  0  0  0  0  0  0  0
    3.1039    0.4209    0.0000 C   0  0  0  0  0  0  0  0  0  0  0  0
    3.3740   -0.3587    0.0000 C   0  0  0  0  0  0  0  0  0  0  0  0
    4.1841   -0.5146    0.0000 C   0  0  0  0  0  0  0  0  0  0  0  0
    4.7242    0.1091    0.0000 C   0  0  0  0  0  0  0  0  0  0  0  0
    5.5343   -0.0468    0.0000 C   0  0  0  0  0  0  0  0  0  0  0  0
    6.0744    0.5768    0.0000 C   0  0  0  0  0  0  0  0  0  0  0  0
    5.8044    1.3563    0.0000 O   0  0  0  0  0  0  0  0  0  0  0  0
    6.8846    0.4209    0.0000 N   0  0  0  0  0  0  0  0  0  0  0  0
    7.4247    1.0445    0.0000 O   0  0  0  0  0  0  0  0  0  0  0  0
    2.5846    2.0638    0.0000 C   0  0  0  0  0  0  0  0  0  0  0  0
    1.8782    1.6376    0.0000 N   0  0  0  0  0  0  0  0  0  0  0  0
    0.4655    0.7852    0.0000 C   0  0  0  0  0  0  0  0  0  0  0  0
   -0.2409    0.3589    0.0000 C   0  0  0  0  0  0  0  0  0  0  0  0
   -2.3441   -1.7446    0.0000 C   0  0  0  0  0  0  0  0  0  0  0  0
   -3.0504   -2.1708    0.0000 C   0  0  0  0  0  0  0  0  0  0  0  0
   -3.7727   -1.7722    0.0000 O   0  0  0  0  0  0  0  0  0  0  0  0
  2  1  1  6  0  0  0
  2  3  1  0  0  0  0
  3  4  1  0  0  0  0
  4  5  1  0  0  0  0
  5  6  2  0  0  0  0
  5  7  1  0  0  0  0
  7  8  1  0  0  0  0
  8  9  4  0  0  0  0
  9 10  4  0  0  0  0
 10 11  4  0  0  0  0
 11 12  1  0  0  0  0
 12 13  4  0  0  0  0
 13 14  4  0  0  0  0
 14 15  1  0  0  0  0
 15 16  1  0  0  0  0
 16 17  1  0  0  0  0
 17 18  1  0  0  0  0
 18 19  1  0  0  0  0
 19 20  1  0  0  0  0
 15 20  1  0  0  0  0
 14 21  4  0  0  0  0
 21 22  4  0  0  0  0
 22 23  4  0  0  0  0
 23 24  4  0  0  0  0
 24 25  1  0  0  0  0
 25 26  1  0  0  0  0
 26 27  1  0  0  0  0
 27 28  1  0  0  0  0
 28 29  1  0  0  0  0
 29 30  1  0  0  0  0
 30 31  1  0  0  0  0
 31 32  2  0  0  0  0
 31 33  1  0  0  0  0
 33 34  1  0  0  0  0
 24 35  4  0  0  0  0
 21 35  4  0  0  0  0
 35 36  4  0  0  0  0
 12 36  4  0  0  0  0
 11 37  4  0  0  0  0
 37 38  4  0  0  0  0
  8 38  4  0  0  0  0
  4 39  1  0  0  0  0
 39 40  1  0  0  0  0
 40 41  1  0  0  0  0
  2 41  1  0  0  0  0
M  END
>  <Molecule ChEMBL ID>
CHEMBL4532398

>  <Compound Key>
12l

>  <Document ChEMBL ID>
CHEMBL4411315

>  <HDAC1>
1

$$$$

  Mrv1808 03272221002D          

 32 35  0  0  0  0            999 V2000
    4.0940   -4.2497    0.0000 N   0  0  0  0  0  0  0  0  0  0  0  0
    3.5420   -3.6366    0.0000 C   0  0  0  0  0  0  0  0  0  0  0  0
    2.7350   -3.8081    0.0000 C   0  0  0  0  0  0  0  0  0  0  0  0
    2.1830   -3.1950    0.0000 C   0  0  0  0  0  0  0  0  0  0  0  0
    2.4379   -2.4104    0.0000 C   0  0  0  0  0  0  0  0  0  0  0  0
    1.8859   -1.7973    0.0000 C   0  0  0  0  0  0  0  0  0  0  0  0
    1.0789   -1.9688    0.0000 N   0  0  0  0  0  0  0  0  0  0  0  0
    0.5269   -1.3557    0.0000 C   0  0  0  0  0  0  0  0  0  0  0  0
   -0.2801   -1.5273    0.0000 N   0  0  0  0  0  0  0  0  0  0  0  0
   -0.5351   -2.3119    0.0000 C   0  0  0  0  0  0  0  0  0  0  0  0
   -1.3420   -2.4834    0.0000 C   0  0  0  0  0  0  0  0  0  0  0  0
   -1.8941   -1.8703    0.0000 O   0  0  0  0  0  0  0  0  0  0  0  0
   -1.6391   -1.0857    0.0000 C   0  0  0  0  0  0  0  0  0  0  0  0
   -0.8321   -0.9142    0.0000 C   0  0  0  0  0  0  0  0  0  0  0  0
    0.7818   -0.5711    0.0000 C   0  0  0  0  0  0  0  0  0  0  0  0
    0.3693    0.1433    0.0000 C   0  0  0  0  0  0  0  0  0  0  0  0
    0.9213    0.7564    0.0000 N   0  0  0  0  0  0  0  0  0  0  0  0
    1.6750    0.4209    0.0000 N   0  0  0  0  0  0  0  0  0  0  0  0
    2.3895    0.8334    0.0000 C   0  0  0  0  0  0  0  0  0  0  0  0
    3.1039    0.4209    0.0000 C   0  0  0  0  0  0  0  0  0  0  0  0
    3.8184    0.8334    0.0000 C   0  0  0  0  0  0  0  0  0  0  0  0
    4.5329    0.4209    0.0000 C   0  0  0  0  0  0  0  0  0  0  0  0
    5.2474    0.8334    0.0000 C   0  0  0  0  0  0  0  0  0  0  0  0
    5.9618    0.4209    0.0000 C   0  0  0  0  0  0  0  0  0  0  0  0
    6.6763    0.8334    0.0000 C   0  0  0  0  0  0  0  0  0  0  0  0
    6.6763    1.6584    0.0000 O   0  0  0  0  0  0  0  0  0  0  0  0
    7.3908    0.4209    0.0000 N   0  0  0  0  0  0  0  0  0  0  0  0
    8.1052    0.8334    0.0000 O   0  0  0  0  0  0  0  0  0  0  0  0
    1.5888   -0.3996    0.0000 C   0  0  0  0  0  0  0  0  0  0  0  0
    2.1408   -1.0127    0.0000 N   0  0  0  0  0  0  0  0  0  0  0  0
    3.2449   -2.2389    0.0000 C   0  0  0  0  0  0  0  0  0  0  0  0
    3.7969   -2.8520    0.0000 C   0  0  0  0  0  0  0  0  0  0  0  0
  1  2  1  0  0  0  0
  2  3  4  0  0  0  0
  3  4  4  0  0  0  0
  4  5  4  0  0  0  0
  5  6  1  0  0  0  0
  6  7  4  0  0  0  0
  7  8  4  0  0  0  0
  8  9  1  0  0  0  0
  9 10  1  0  0  0  0
 10 11  1  0  0  0  0
 11 12  1  0  0  0  0
 12 13  1  0  0  0  0
 13 14  1  0  0  0  0
  9 14  1  0  0  0  0
  8 15  4  0  0  0  0
 15 16  4  0  0  0  0
 16 17  4  0  0  0  0
 17 18  4  0  0  0  0
 18 19  1  0  0  0  0
 19 20  1  0  0  0  0
 20 21  1  0  0  0  0
 21 22  1  0  0  0  0
 22 23  1  0  0  0  0
 23 24  1  0  0  0  0
 24 25  1  0  0  0  0
 25 26  2  0  0  0  0
 25 27  1  0  0  0  0
 27 28  1  0  0  0  0
 18 29  4  0  0  0  0
 15 29  4  0  0  0  0
 29 30  4  0  0  0  0
  6 30  4  0  0  0  0
  5 31  4  0  0  0  0
 31 32  4  0  0  0  0
  2 32  4  0  0  0  0
M  END
>  <Molecule ChEMBL ID>
CHEMBL4552057

>  <Compound Key>
10a

>  <Document ChEMBL ID>
CHEMBL4411315

>  <HDAC1>
1

$$$$

  Mrv1808 03272221002D          

 37 41  0  0  0  0            999 V2000
    6.2102    4.4104    0.0000 C   0  0  0  0  0  0  0  0  0  0  0  0
    6.2102    3.5854    0.0000 O   0  0  0  0  0  0  0  0  0  0  0  0
    5.4957    3.1729    0.0000 C   0  0  0  0  0  0  0  0  0  0  0  0
    5.4957    2.3479    0.0000 C   0  0  0  0  0  0  0  0  0  0  0  0
    4.7812    1.9354    0.0000 C   0  0  0  0  0  0  0  0  0  0  0  0
    4.0668    2.3479    0.0000 C   0  0  0  0  0  0  0  0  0  0  0  0
    3.3523    1.9354    0.0000 C   0  0  0  0  0  0  0  0  0  0  0  0
    3.3523    1.1104    0.0000 N   0  0  0  0  0  0  0  0  0  0  0  0
    2.6378    0.6979    0.0000 C   0  0  0  0  0  0  0  0  0  0  0  0
    2.6378   -0.1271    0.0000 N   0  0  0  0  0  0  0  0  0  0  0  0
    3.3523   -0.5396    0.0000 C   0  0  0  0  0  0  0  0  0  0  0  0
    3.3523   -1.3646    0.0000 C   0  0  0  0  0  0  0  0  0  0  0  0
    2.6378   -1.7771    0.0000 O   0  0  0  0  0  0  0  0  0  0  0  0
    1.9233   -1.3646    0.0000 C   0  0  0  0  0  0  0  0  0  0  0  0
    1.9233   -0.5396    0.0000 C   0  0  0  0  0  0  0  0  0  0  0  0
    1.9233    1.1104    0.0000 C   0  0  0  0  0  0  0  0  0  0  0  0
    1.1387    0.8555    0.0000 N   0  0  0  0  0  0  0  0  0  0  0  0
    0.6538    1.5229    0.0000 C   0  0  0  0  0  0  0  0  0  0  0  0
   -0.1712    1.5229    0.0000 C   0  0  0  0  0  0  0  0  0  0  0  0
   -0.5837    0.8085    0.0000 N   0  0  0  0  0  0  0  0  0  0  0  0
   -0.1712    0.0940    0.0000 C   0  0  0  0  0  0  0  0  0  0  0  0
   -1.4087    0.8085    0.0000 C   0  0  0  0  0  0  0  0  0  0  0  0
   -1.8212    0.0940    0.0000 N   0  0  0  0  0  0  0  0  0  0  0  0
   -2.6462    0.0940    0.0000 C   0  0  0  0  0  0  0  0  0  0  0  0
   -3.0587    0.8085    0.0000 C   0  0  0  0  0  0  0  0  0  0  0  0
   -3.8837    0.8085    0.0000 C   0  0  0  0  0  0  0  0  0  0  0  0
   -4.2962    0.0940    0.0000 O   0  0  0  0  0  0  0  0  0  0  0  0
   -4.2962    1.5229    0.0000 N   0  0  0  0  0  0  0  0  0  0  0  0
   -5.1212    1.5229    0.0000 O   0  0  0  0  0  0  0  0  0  0  0  0
   -2.6462    1.5229    0.0000 C   0  0  0  0  0  0  0  0  0  0  0  0
   -1.8212    1.5229    0.0000 N   0  0  0  0  0  0  0  0  0  0  0  0
    1.1387    2.1904    0.0000 N   0  0  0  0  0  0  0  0  0  0  0  0
    0.8838    2.9750    0.0000 C   0  0  0  0  0  0  0  0  0  0  0  0
    1.9233    1.9354    0.0000 C   0  0  0  0  0  0  0  0  0  0  0  0
    2.6378    2.3479    0.0000 N   0  0  0  0  0  0  0  0  0  0  0  0
    4.0668    3.1729    0.0000 C   0  0  0  0  0  0  0  0  0  0  0  0
    4.7812    3.5854    0.0000 C   0  0  0  0  0  0  0  0  0  0  0  0
  1  2  1  0  0  0  0
  2  3  1  0  0  0  0
  3  4  4  0  0  0  0
  4  5  4  0  0  0  0
  5  6  4  0  0  0  0
  6  7  1  0  0  0  0
  7  8  4  0  0  0  0
  8  9  4  0  0  0  0
  9 10  1  0  0  0  0
 10 11  1  0  0  0  0
 11 12  1  0  0  0  0
 12 13  1  0  0  0  0
 13 14  1  0  0  0  0
 14 15  1  0  0  0  0
 10 15  1  0  0  0  0
  9 16  4  0  0  0  0
 16 17  4  0  0  0  0
 17 18  4  0  0  0  0
 18 19  1  0  0  0  0
 19 20  1  0  0  0  0
 20 21  1  0  0  0  0
 20 22  1  0  0  0  0
 22 23  4  0  0  0  0
 23 24  4  0  0  0  0
 24 25  4  0  0  0  0
 25 26  1  0  0  0  0
 26 27  2  0  0  0  0
 26 28  1  0  0  0  0
 28 29  1  0  0  0  0
 25 30  4  0  0  0  0
 30 31  4  0  0  0  0
 22 31  4  0  0  0  0
 18 32  4  0  0  0  0
 32 33  1  0  0  0  0
 32 34  4  0  0  0  0
 16 34  4  0  0  0  0
 34 35  4  0  0  0  0
  7 35  4  0  0  0  0
  6 36  4  0  0  0  0
 36 37  4  0  0  0  0
  3 37  4  0  0  0  0
M  END
>  <Molecule ChEMBL ID>
CHEMBL3828518

>  <Compound Key>
10c

>  <Document ChEMBL ID>
CHEMBL3826921

>  <HDAC1>
1

$$$$

  Mrv1808 03272221002D          

 35 39  0  0  0  0            999 V2000
   -0.1712   -2.1269    0.0000 C   0  0  0  0  0  0  0  0  0  0  0  0
   -0.5837   -1.4124    0.0000 N   0  0  0  0  0  0  0  0  0  0  0  0
   -0.1712   -0.6979    0.0000 C   0  0  0  0  0  0  0  0  0  0  0  0
    0.6538   -0.6979    0.0000 C   0  0  0  0  0  0  0  0  0  0  0  0
    1.1387   -0.0305    0.0000 N   0  0  0  0  0  0  0  0  0  0  0  0
    1.9233   -0.2854    0.0000 C   0  0  0  0  0  0  0  0  0  0  0  0
    2.6378    0.1271    0.0000 C   0  0  0  0  0  0  0  0  0  0  0  0
    2.6378    0.9521    0.0000 N   0  0  0  0  0  0  0  0  0  0  0  0
    1.9233    1.3646    0.0000 C   0  0  0  0  0  0  0  0  0  0  0  0
    1.9233    2.1896    0.0000 C   0  0  0  0  0  0  0  0  0  0  0  0
    2.6378    2.6021    0.0000 O   0  0  0  0  0  0  0  0  0  0  0  0
    3.3523    2.1896    0.0000 C   0  0  0  0  0  0  0  0  0  0  0  0
    3.3523    1.3646    0.0000 C   0  0  0  0  0  0  0  0  0  0  0  0
    3.3523   -0.2854    0.0000 N   0  0  0  0  0  0  0  0  0  0  0  0
    3.3523   -1.1104    0.0000 C   0  0  0  0  0  0  0  0  0  0  0  0
    4.0668   -1.5229    0.0000 C   0  0  0  0  0  0  0  0  0  0  0  0
    4.7812   -1.1104    0.0000 C   0  0  0  0  0  0  0  0  0  0  0  0
    5.4957   -1.5229    0.0000 C   0  0  0  0  0  0  0  0  0  0  0  0
    5.4957   -2.3479    0.0000 C   0  0  0  0  0  0  0  0  0  0  0  0
    4.7812   -2.7604    0.0000 N   0  0  0  0  0  0  0  0  0  0  0  0
    4.0668   -2.3479    0.0000 C   0  0  0  0  0  0  0  0  0  0  0  0
    2.6378   -1.5229    0.0000 N   0  0  0  0  0  0  0  0  0  0  0  0
    1.9233   -1.1104    0.0000 C   0  0  0  0  0  0  0  0  0  0  0  0
    1.1387   -1.3654    0.0000 N   0  0  0  0  0  0  0  0  0  0  0  0
    0.8838   -2.1500    0.0000 C   0  0  0  0  0  0  0  0  0  0  0  0
   -1.4087   -1.4124    0.0000 C   0  0  0  0  0  0  0  0  0  0  0  0
   -1.8212   -2.1269    0.0000 N   0  0  0  0  0  0  0  0  0  0  0  0
   -2.6462   -2.1269    0.0000 C   0  0  0  0  0  0  0  0  0  0  0  0
   -3.0587   -1.4124    0.0000 C   0  0  0  0  0  0  0  0  0  0  0  0
   -3.8837   -1.4124    0.0000 C   0  0  0  0  0  0  0  0  0  0  0  0
   -4.2962   -2.1269    0.0000 O   0  0  0  0  0  0  0  0  0  0  0  0
   -4.2962   -0.6979    0.0000 N   0  0  0  0  0  0  0  0  0  0  0  0
   -5.1212   -0.6979    0.0000 O   0  0  0  0  0  0  0  0  0  0  0  0
   -2.6462   -0.6979    0.0000 C   0  0  0  0  0  0  0  0  0  0  0  0
   -1.8212   -0.6979    0.0000 N   0  0  0  0  0  0  0  0  0  0  0  0
  1  2  1  0  0  0  0
  2  3  1  0  0  0  0
  3  4  1  0  0  0  0
  4  5  4  0  0  0  0
  5  6  4  0  0  0  0
  6  7  4  0  0  0  0
  7  8  1  0  0  0  0
  8  9  1  0  0  0  0
  9 10  1  0  0  0  0
 10 11  1  0  0  0  0
 11 12  1  0  0  0  0
 12 13  1  0  0  0  0
  8 13  1  0  0  0  0
  7 14  4  0  0  0  0
 14 15  4  0  0  0  0
 15 16  1  0  0  0  0
 16 17  4  0  0  0  0
 17 18  4  0  0  0  0
 18 19  4  0  0  0  0
 19 20  4  0  0  0  0
 20 21  4  0  0  0  0
 16 21  4  0  0  0  0
 15 22  4  0  0  0  0
 22 23  4  0  0  0  0
  6 23  4  0  0  0  0
 23 24  4  0  0  0  0
  4 24  4  0  0  0  0
 24 25  1  0  0  0  0
  2 26  1  0  0  0  0
 26 27  4  0  0  0  0
 27 28  4  0  0  0  0
 28 29  4  0  0  0  0
 29 30  1  0  0  0  0
 30 31  2  0  0  0  0
 30 32  1  0  0  0  0
 32 33  1  0  0  0  0
 29 34  4  0  0  0  0
 34 35  4  0  0  0  0
 26 35  4  0  0  0  0
M  END
>  <Molecule ChEMBL ID>
CHEMBL3828636

>  <Compound Key>
10x

>  <Document ChEMBL ID>
CHEMBL3826921

>  <HDAC1>
1

$$$$

  Mrv1808 03272221002D          

 35 39  0  0  0  0            999 V2000
   -0.1712   -2.1269    0.0000 C   0  0  0  0  0  0  0  0  0  0  0  0
   -0.5837   -1.4124    0.0000 N   0  0  0  0  0  0  0  0  0  0  0  0
   -0.1712   -0.6979    0.0000 C   0  0  0  0  0  0  0  0  0  0  0  0
    0.6538   -0.6979    0.0000 C   0  0  0  0  0  0  0  0  0  0  0  0
    1.1387   -0.0305    0.0000 N   0  0  0  0  0  0  0  0  0  0  0  0
    1.9233   -0.2854    0.0000 C   0  0  0  0  0  0  0  0  0  0  0  0
    2.6378    0.1271    0.0000 C   0  0  0  0  0  0  0  0  0  0  0  0
    2.6378    0.9521    0.0000 N   0  0  0  0  0  0  0  0  0  0  0  0
    1.9233    1.3646    0.0000 C   0  0  0  0  0  0  0  0  0  0  0  0
    1.9233    2.1896    0.0000 C   0  0  0  0  0  0  0  0  0  0  0  0
    2.6378    2.6021    0.0000 O   0  0  0  0  0  0  0  0  0  0  0  0
    3.3523    2.1896    0.0000 C   0  0  0  0  0  0  0  0  0  0  0  0
    3.3523    1.3646    0.0000 C   0  0  0  0  0  0  0  0  0  0  0  0
    3.3523   -0.2854    0.0000 N   0  0  0  0  0  0  0  0  0  0  0  0
    3.3523   -1.1104    0.0000 C   0  0  0  0  0  0  0  0  0  0  0  0
    4.0668   -1.5229    0.0000 C   0  0  0  0  0  0  0  0  0  0  0  0
    4.7812   -1.1104    0.0000 C   0  0  0  0  0  0  0  0  0  0  0  0
    5.4957   -1.5229    0.0000 C   0  0  0  0  0  0  0  0  0  0  0  0
    5.4957   -2.3479    0.0000 N   0  0  0  0  0  0  0  0  0  0  0  0
    4.7812   -2.7604    0.0000 C   0  0  0  0  0  0  0  0  0  0  0  0
    4.0668   -2.3479    0.0000 C   0  0  0  0  0  0  0  0  0  0  0  0
    2.6378   -1.5229    0.0000 N   0  0  0  0  0  0  0  0  0  0  0  0
    1.9233   -1.1104    0.0000 C   0  0  0  0  0  0  0  0  0  0  0  0
    1.1387   -1.3654    0.0000 N   0  0  0  0  0  0  0  0  0  0  0  0
    0.8838   -2.1500    0.0000 C   0  0  0  0  0  0  0  0  0  0  0  0
   -1.4087   -1.4124    0.0000 C   0  0  0  0  0  0  0  0  0  0  0  0
   -1.8212   -2.1269    0.0000 N   0  0  0  0  0  0  0  0  0  0  0  0
   -2.6462   -2.1269    0.0000 C   0  0  0  0  0  0  0  0  0  0  0  0
   -3.0587   -1.4124    0.0000 C   0  0  0  0  0  0  0  0  0  0  0  0
   -3.8837   -1.4124    0.0000 C   0  0  0  0  0  0  0  0  0  0  0  0
   -4.2962   -2.1269    0.0000 O   0  0  0  0  0  0  0  0  0  0  0  0
   -4.2962   -0.6979    0.0000 N   0  0  0  0  0  0  0  0  0  0  0  0
   -5.1212   -0.6979    0.0000 O   0  0  0  0  0  0  0  0  0  0  0  0
   -2.6462   -0.6979    0.0000 C   0  0  0  0  0  0  0  0  0  0  0  0
   -1.8212   -0.6979    0.0000 N   0  0  0  0  0  0  0  0  0  0  0  0
  1  2  1  0  0  0  0
  2  3  1  0  0  0  0
  3  4  1  0  0  0  0
  4  5  4  0  0  0  0
  5  6  4  0  0  0  0
  6  7  4  0  0  0  0
  7  8  1  0  0  0  0
  8  9  1  0  0  0  0
  9 10  1  0  0  0  0
 10 11  1  0  0  0  0
 11 12  1  0  0  0  0
 12 13  1  0  0  0  0
  8 13  1  0  0  0  0
  7 14  4  0  0  0  0
 14 15  4  0  0  0  0
 15 16  1  0  0  0  0
 16 17  4  0  0  0  0
 17 18  4  0  0  0  0
 18 19  4  0  0  0  0
 19 20  4  0  0  0  0
 20 21  4  0  0  0  0
 16 21  4  0  0  0  0
 15 22  4  0  0  0  0
 22 23  4  0  0  0  0
  6 23  4  0  0  0  0
 23 24  4  0  0  0  0
  4 24  4  0  0  0  0
 24 25  1  0  0  0  0
  2 26  1  0  0  0  0
 26 27  4  0  0  0  0
 27 28  4  0  0  0  0
 28 29  4  0  0  0  0
 29 30  1  0  0  0  0
 30 31  2  0  0  0  0
 30 32  1  0  0  0  0
 32 33  1  0  0  0  0
 29 34  4  0  0  0  0
 34 35  4  0  0  0  0
 26 35  4  0  0  0  0
M  END
>  <Molecule ChEMBL ID>
CHEMBL3827517

>  <Compound Key>
10y

>  <Document ChEMBL ID>
CHEMBL3826921

>  <HDAC1>
1

$$$$

  Mrv1808 03272221002D          

 23 23  0  0  0  0            999 V2000
   -0.7145    2.8875    0.0000 C   0  0  0  0  0  0  0  0  0  0  0  0
   -0.0000    2.4750    0.0000 O   0  0  0  0  0  0  0  0  0  0  0  0
    0.7145    2.8875    0.0000 C   0  0  0  0  0  0  0  0  0  0  0  0
    0.7145    3.7125    0.0000 C   0  0  0  0  0  0  0  0  0  0  0  0
    1.4289    4.1250    0.0000 C   0  0  0  0  0  0  0  0  0  0  0  0
    2.1434    3.7125    0.0000 C   0  0  0  0  0  0  0  0  0  0  0  0
    2.8579    4.1250    0.0000 Br  0  0  0  0  0  0  0  0  0  0  0  0
    2.1434    2.8875    0.0000 C   0  0  0  0  0  0  0  0  0  0  0  0
    2.8579    2.4750    0.0000 C   0  0  0  0  0  0  0  0  0  0  0  0
    2.8579    1.6500    0.0000 N   0  0  0  0  0  0  0  0  0  0  0  0
    3.5724    1.2375    0.0000 N   0  0  0  0  0  0  0  0  0  0  0  0
    4.2868    1.6500    0.0000 C   0  0  0  0  0  0  0  0  0  0  0  0
    4.2868    2.4750    0.0000 O   0  0  0  0  0  0  0  0  0  0  0  0
    5.0013    1.2375    0.0000 C   0  0  0  0  0  0  0  0  0  0  0  0
    5.7158    1.6500    0.0000 C   0  0  0  0  0  0  0  0  0  0  0  0
    6.4302    1.2375    0.0000 C   0  0  0  0  0  0  0  0  0  0  0  0
    7.1447    1.6500    0.0000 C   0  0  0  0  0  0  0  0  0  0  0  0
    7.8592    1.2375    0.0000 C   0  0  0  0  0  0  0  0  0  0  0  0
    8.5737    1.6500    0.0000 C   0  0  0  0  0  0  0  0  0  0  0  0
    8.5737    2.4750    0.0000 O   0  0  0  0  0  0  0  0  0  0  0  0
    9.2881    1.2375    0.0000 N   0  0  0  0  0  0  0  0  0  0  0  0
   10.0026    1.6500    0.0000 O   0  0  0  0  0  0  0  0  0  0  0  0
    1.4289    2.4750    0.0000 C   0  0  0  0  0  0  0  0  0  0  0  0
  1  2  1  0  0  0  0
  2  3  1  0  0  0  0
  3  4  4  0  0  0  0
  4  5  4  0  0  0  0
  5  6  4  0  0  0  0
  6  7  1  0  0  0  0
  6  8  4  0  0  0  0
  8  9  1  0  0  0  0
  9 10  2  0  0  0  0
 10 11  1  0  0  0  0
 11 12  1  0  0  0  0
 12 13  2  0  0  0  0
 12 14  1  0  0  0  0
 14 15  1  0  0  0  0
 15 16  1  0  0  0  0
 16 17  1  0  0  0  0
 17 18  1  0  0  0  0
 18 19  1  0  0  0  0
 19 20  2  0  0  0  0
 19 21  1  0  0  0  0
 21 22  1  0  0  0  0
  8 23  4  0  0  0  0
  3 23  4  0  0  0  0
M  END
>  <Molecule ChEMBL ID>
CHEMBL3759059

>  <Compound Key>
9j

>  <Document ChEMBL ID>
CHEMBL3758132

>  <HDAC1>
1

$$$$

  Mrv1808 03272221002D          

 36 40  0  0  0  0            999 V2000
   -0.1712   -2.1269    0.0000 C   0  0  0  0  0  0  0  0  0  0  0  0
   -0.5837   -1.4124    0.0000 N   0  0  0  0  0  0  0  0  0  0  0  0
   -0.1712   -0.6979    0.0000 C   0  0  0  0  0  0  0  0  0  0  0  0
    0.6538   -0.6979    0.0000 C   0  0  0  0  0  0  0  0  0  0  0  0
    1.1387   -0.0305    0.0000 N   0  0  0  0  0  0  0  0  0  0  0  0
    1.9233   -0.2854    0.0000 C   0  0  0  0  0  0  0  0  0  0  0  0
    2.6378    0.1271    0.0000 C   0  0  0  0  0  0  0  0  0  0  0  0
    2.6378    0.9521    0.0000 N   0  0  0  0  0  0  0  0  0  0  0  0
    1.9233    1.3646    0.0000 C   0  0  0  0  0  0  0  0  0  0  0  0
    1.9233    2.1896    0.0000 C   0  0  0  0  0  0  0  0  0  0  0  0
    2.6378    2.6021    0.0000 O   0  0  0  0  0  0  0  0  0  0  0  0
    3.3523    2.1896    0.0000 C   0  0  0  0  0  0  0  0  0  0  0  0
    3.3523    1.3646    0.0000 C   0  0  0  0  0  0  0  0  0  0  0  0
    3.3523   -0.2854    0.0000 N   0  0  0  0  0  0  0  0  0  0  0  0
    3.3523   -1.1104    0.0000 C   0  0  0  0  0  0  0  0  0  0  0  0
    4.0668   -1.5229    0.0000 C   0  0  0  0  0  0  0  0  0  0  0  0
    4.7812   -1.1104    0.0000 C   0  0  0  0  0  0  0  0  0  0  0  0
    5.4957   -1.5229    0.0000 C   0  0  0  0  0  0  0  0  0  0  0  0
    5.4957   -2.3479    0.0000 C   0  0  0  0  0  0  0  0  0  0  0  0
    6.2102   -2.7604    0.0000 N   0  0  0  0  0  0  0  0  0  0  0  0
    4.7812   -2.7604    0.0000 C   0  0  0  0  0  0  0  0  0  0  0  0
    4.0668   -2.3479    0.0000 C   0  0  0  0  0  0  0  0  0  0  0  0
    2.6378   -1.5229    0.0000 N   0  0  0  0  0  0  0  0  0  0  0  0
    1.9233   -1.1104    0.0000 C   0  0  0  0  0  0  0  0  0  0  0  0
    1.1387   -1.3654    0.0000 N   0  0  0  0  0  0  0  0  0  0  0  0
    0.8838   -2.1500    0.0000 C   0  0  0  0  0  0  0  0  0  0  0  0
   -1.4087   -1.4124    0.0000 C   0  0  0  0  0  0  0  0  0  0  0  0
   -1.8212   -2.1269    0.0000 N   0  0  0  0  0  0  0  0  0  0  0  0
   -2.6462   -2.1269    0.0000 C   0  0  0  0  0  0  0  0  0  0  0  0
   -3.0587   -1.4124    0.0000 C   0  0  0  0  0  0  0  0  0  0  0  0
   -3.8837   -1.4124    0.0000 C   0  0  0  0  0  0  0  0  0  0  0  0
   -4.2962   -2.1269    0.0000 O   0  0  0  0  0  0  0  0  0  0  0  0
   -4.2962   -0.6979    0.0000 N   0  0  0  0  0  0  0  0  0  0  0  0
   -5.1212   -0.6979    0.0000 O   0  0  0  0  0  0  0  0  0  0  0  0
   -2.6462   -0.6979    0.0000 C   0  0  0  0  0  0  0  0  0  0  0  0
   -1.8212   -0.6979    0.0000 N   0  0  0  0  0  0  0  0  0  0  0  0
  1  2  1  0  0  0  0
  2  3  1  0  0  0  0
  3  4  1  0  0  0  0
  4  5  4  0  0  0  0
  5  6  4  0  0  0  0
  6  7  4  0  0  0  0
  7  8  1  0  0  0  0
  8  9  1  0  0  0  0
  9 10  1  0  0  0  0
 10 11  1  0  0  0  0
 11 12  1  0  0  0  0
 12 13  1  0  0  0  0
  8 13  1  0  0  0  0
  7 14  4  0  0  0  0
 14 15  4  0  0  0  0
 15 16  1  0  0  0  0
 16 17  4  0  0  0  0
 17 18  4  0  0  0  0
 18 19  4  0  0  0  0
 19 20  1  0  0  0  0
 19 21  4  0  0  0  0
 21 22  4  0  0  0  0
 16 22  4  0  0  0  0
 15 23  4  0  0  0  0
 23 24  4  0  0  0  0
  6 24  4  0  0  0  0
 24 25  4  0  0  0  0
  4 25  4  0  0  0  0
 25 26  1  0  0  0  0
  2 27  1  0  0  0  0
 27 28  4  0  0  0  0
 28 29  4  0  0  0  0
 29 30  4  0  0  0  0
 30 31  1  0  0  0  0
 31 32  2  0  0  0  0
 31 33  1  0  0  0  0
 33 34  1  0  0  0  0
 30 35  4  0  0  0  0
 35 36  4  0  0  0  0
 27 36  4  0  0  0  0
M  END
>  <Molecule ChEMBL ID>
CHEMBL3827814

>  <Compound Key>
10o

>  <Document ChEMBL ID>
CHEMBL3826921

>  <HDAC1>
1

$$$$

  Mrv1808 03272221002D          

 45 48  0  0  1  0            999 V2000
    0.0000    7.3658    0.0000 C   0  0  0  0  0  0  0  0  0  0  0  0
    0.7145    6.9533    0.0000 C   0  0  0  0  0  0  0  0  0  0  0  0
    1.4289    7.3658    0.0000 C   0  0  0  0  0  0  0  0  0  0  0  0
    1.4289    8.1908    0.0000 O   0  0  0  0  0  0  0  0  0  0  0  0
    2.1434    6.9533    0.0000 C   0  0  0  0  0  0  0  0  0  0  0  0
    2.8579    7.3658    0.0000 C   0  0  0  0  0  0  0  0  0  0  0  0
    3.5724    6.9533    0.0000 C   0  0  0  0  0  0  0  0  0  0  0  0
    4.2868    7.3658    0.0000 C   0  0  0  0  0  0  0  0  0  0  0  0
    5.0013    6.9533    0.0000 C   0  0  0  0  0  0  0  0  0  0  0  0
    5.7158    7.3658    0.0000 C   0  0  2  0  0  0  0  0  0  0  0  0
    6.4302    6.9533    0.0000 N   0  0  0  0  0  0  0  0  0  0  0  0
    6.8427    6.2388    0.0000 C   0  0  0  0  0  0  0  0  0  0  0  0
    6.4302    5.5243    0.0000 O   0  0  0  0  0  0  0  0  0  0  0  0
    7.6677    6.2388    0.0000 C   0  0  1  0  0  0  0  0  0  0  0  0
    8.0802    5.5243    0.0000 C   0  0  0  0  0  0  0  0  0  0  0  0
    8.9052    5.5243    0.0000 C   0  0  0  0  0  0  0  0  0  0  0  0
    9.3177    6.2388    0.0000 C   0  0  0  0  0  0  0  0  0  0  0  0
    8.9052    6.9533    0.0000 C   0  0  0  0  0  0  0  0  0  0  0  0
    8.0802    6.9533    0.0000 N   0  0  0  0  0  0  0  0  0  0  0  0
    8.7947    7.3658    0.0000 C   0  0  0  0  0  0  0  0  0  0  0  0
    9.5092    6.9533    0.0000 O   0  0  0  0  0  0  0  0  0  0  0  0
    8.7947    8.1908    0.0000 C   0  0  2  0  0  0  0  0  0  0  0  0
    9.5092    8.6033    0.0000 C   0  0  1  0  0  0  0  0  0  0  0  0
   10.2237    8.1908    0.0000 C   0  0  0  0  0  0  0  0  0  0  0  0
    9.5092    9.4283    0.0000 C   0  0  0  0  0  0  0  0  0  0  0  0
    8.7947    9.8408    0.0000 C   0  0  0  0  0  0  0  0  0  0  0  0
    8.0802    8.6033    0.0000 N   0  0  0  0  0  0  0  0  0  0  0  0
    7.6677    9.3177    0.0000 C   0  0  0  0  0  0  0  0  0  0  0  0
    8.0802   10.0322    0.0000 O   0  0  0  0  0  0  0  0  0  0  0  0
    6.8427    9.3177    0.0000 C   0  0  2  0  0  0  0  0  0  0  0  0
    6.4302   10.0322    0.0000 C   0  0  0  0  0  0  0  0  0  0  0  0
    6.8427   10.7467    0.0000 C   0  0  0  0  0  0  0  0  0  0  0  0
    7.6632   10.8329    0.0000 C   0  0  0  0  0  0  0  0  0  0  0  0
    7.8347   11.6399    0.0000 N   0  0  0  0  0  0  0  0  0  0  0  0
    8.5884   11.9754    0.0000 O   0  0  0  0  0  0  0  0  0  0  0  0
    9.2559   11.4905    0.0000 C   0  0  0  0  0  0  0  0  0  0  0  0
    7.1203   12.0524    0.0000 C   0  0  0  0  0  0  0  0  0  0  0  0
    6.9487   12.8594    0.0000 C   0  0  0  0  0  0  0  0  0  0  0  0
    6.1641   13.1143    0.0000 C   0  0  0  0  0  0  0  0  0  0  0  0
    5.5510   12.5623    0.0000 C   0  0  0  0  0  0  0  0  0  0  0  0
    5.7226   11.7553    0.0000 C   0  0  0  0  0  0  0  0  0  0  0  0
    6.5072   11.5004    0.0000 C   0  0  0  0  0  0  0  0  0  0  0  0
    6.4302    8.6033    0.0000 N   0  0  0  0  0  0  0  0  0  0  0  0
    5.7158    8.1908    0.0000 C   0  0  0  0  0  0  0  0  0  0  0  0
    5.0013    8.6033    0.0000 O   0  0  0  0  0  0  0  0  0  0  0  0
  1  2  1  0  0  0  0
  2  3  1  0  0  0  0
  3  4  2  0  0  0  0
  3  5  1  0  0  0  0
  5  6  1  0  0  0  0
  6  7  1  0  0  0  0
  7  8  1  0  0  0  0
  8  9  1  0  0  0  0
 10  9  1  1  0  0  0
 10 11  1  0  0  0  0
 11 12  1  0  0  0  0
 12 13  2  0  0  0  0
 14 12  1  0  0  0  0
 14 15  1  0  0  0  0
 15 16  1  0  0  0  0
 16 17  1  0  0  0  0
 17 18  1  0  0  0  0
 18 19  1  0  0  0  0
 14 19  1  6  0  0  0
 19 20  1  0  0  0  0
 20 21  2  0  0  0  0
 22 20  1  0  0  0  0
 22 23  1  1  0  0  0
 23 24  1  6  0  0  0
 23 25  1  0  0  0  0
 25 26  1  0  0  0  0
 22 27  1  0  0  0  0
 27 28  1  0  0  0  0
 28 29  2  0  0  0  0
 30 28  1  0  0  0  0
 30 31  1  1  0  0  0
 31 32  1  0  0  0  0
 32 33  4  0  0  0  0
 33 34  4  0  0  0  0
 34 35  1  0  0  0  0
 35 36  1  0  0  0  0
 34 37  4  0  0  0  0
 37 38  4  0  0  0  0
 38 39  4  0  0  0  0
 39 40  4  0  0  0  0
 40 41  4  0  0  0  0
 41 42  4  0  0  0  0
 32 42  4  0  0  0  0
 37 42  4  0  0  0  0
 30 43  1  0  0  0  0
 43 44  1  0  0  0  0
 10 44  1  0  0  0  0
 44 45  2  0  0  0  0
M  END
>  <Molecule ChEMBL ID>
CHEMBL430060

>  <Compound Key>
Apicidin

>  <Document ChEMBL ID>
CHEMBL1165952

>  <HDAC1>
1

$$$$

  Mrv1808 03272221002D          

 34 37  0  0  0  0            999 V2000
    7.1741   -2.8256    0.0000 O   0  0  0  0  0  0  0  0  0  0  0  0
    7.1741   -3.6506    0.0000 C   0  0  0  0  0  0  0  0  0  0  0  0
    6.4596   -4.0631    0.0000 C   0  0  0  0  0  0  0  0  0  0  0  0
    5.7451   -3.6506    0.0000 C   0  0  0  0  0  0  0  0  0  0  0  0
    5.0307   -4.0631    0.0000 C   0  0  0  0  0  0  0  0  0  0  0  0
    4.3162   -3.6506    0.0000 C   0  0  0  0  0  0  0  0  0  0  0  0
    3.6017   -4.0631    0.0000 C   0  0  0  0  0  0  0  0  0  0  0  0
    2.8873   -3.6506    0.0000 C   0  0  0  0  0  0  0  0  0  0  0  0
    2.1728   -4.0631    0.0000 N   0  0  0  0  0  0  0  0  0  0  0  0
    2.0865   -4.8836    0.0000 C   0  0  0  0  0  0  0  0  0  0  0  0
    1.2796   -5.0551    0.0000 C   0  0  0  0  0  0  0  0  0  0  0  0
    0.9440   -5.8088    0.0000 C   0  0  0  0  0  0  0  0  0  0  0  0
    1.4289   -6.4762    0.0000 C   0  0  0  0  0  0  0  0  0  0  0  0
    1.0934   -7.2299    0.0000 C   0  0  0  0  0  0  0  0  0  0  0  0
    0.2729   -7.3162    0.0000 C   0  0  0  0  0  0  0  0  0  0  0  0
   -0.0627   -8.0698    0.0000 N   0  0  0  0  0  0  0  0  0  0  0  0
   -0.8831   -8.1561    0.0000 C   0  0  0  0  0  0  0  0  0  0  0  0
   -1.3681   -7.4886    0.0000 N   0  0  0  0  0  0  0  0  0  0  0  0
   -1.0325   -6.7350    0.0000 C   0  0  0  0  0  0  0  0  0  0  0  0
   -1.5174   -6.0675    0.0000 N   0  0  0  0  0  0  0  0  0  0  0  0
   -2.3379   -6.1537    0.0000 C   0  0  0  0  0  0  0  0  0  0  0  0
   -2.6735   -6.9074    0.0000 C   0  0  0  0  0  0  0  0  0  0  0  0
   -3.4939   -6.9937    0.0000 C   0  0  0  0  0  0  0  0  0  0  0  0
   -3.9789   -6.3262    0.0000 C   0  0  0  0  0  0  0  0  0  0  0  0
   -3.6433   -5.5725    0.0000 C   0  0  0  0  0  0  0  0  0  0  0  0
   -4.1282   -4.9051    0.0000 Cl  0  0  0  0  0  0  0  0  0  0  0  0
   -2.8228   -5.4863    0.0000 C   0  0  0  0  0  0  0  0  0  0  0  0
   -2.4873   -4.7326    0.0000 F   0  0  0  0  0  0  0  0  0  0  0  0
   -0.2120   -6.6487    0.0000 C   0  0  0  0  0  0  0  0  0  0  0  0
    0.1235   -5.8950    0.0000 C   0  0  0  0  0  0  0  0  0  0  0  0
    0.8671   -4.3407    0.0000 N   0  0  0  0  0  0  0  0  0  0  0  0
    1.4191   -3.7276    0.0000 N   0  0  0  0  0  0  0  0  0  0  0  0
    7.8886   -4.0631    0.0000 N   0  0  0  0  0  0  0  0  0  0  0  0
    8.6030   -3.6506    0.0000 O   0  0  0  0  0  0  0  0  0  0  0  0
  1  2  2  0  0  0  0
  2  3  1  0  0  0  0
  3  4  1  0  0  0  0
  4  5  1  0  0  0  0
  5  6  1  0  0  0  0
  6  7  1  0  0  0  0
  7  8  1  0  0  0  0
  8  9  1  0  0  0  0
  9 10  4  0  0  0  0
 10 11  4  0  0  0  0
 11 12  1  0  0  0  0
 12 13  4  0  0  0  0
 13 14  4  0  0  0  0
 14 15  4  0  0  0  0
 15 16  4  0  0  0  0
 16 17  4  0  0  0  0
 17 18  4  0  0  0  0
 18 19  4  0  0  0  0
 19 20  1  0  0  0  0
 20 21  1  0  0  0  0
 21 22  4  0  0  0  0
 22 23  4  0  0  0  0
 23 24  4  0  0  0  0
 24 25  4  0  0  0  0
 25 26  1  0  0  0  0
 25 27  4  0  0  0  0
 21 27  4  0  0  0  0
 27 28  1  0  0  0  0
 19 29  4  0  0  0  0
 15 29  4  0  0  0  0
 29 30  4  0  0  0  0
 12 30  4  0  0  0  0
 11 31  4  0  0  0  0
 31 32  4  0  0  0  0
  9 32  4  0  0  0  0
  2 33  1  0  0  0  0
 33 34  1  0  0  0  0
M  END
>  <Molecule ChEMBL ID>
CHEMBL3930620

>  <Compound Key>
9d

>  <Document ChEMBL ID>
CHEMBL3870325

>  <HDAC1>
1

$$$$

  Mrv1808 03272221002D          

 38 42  0  0  0  0            999 V2000
    6.2102    4.4104    0.0000 C   0  0  0  0  0  0  0  0  0  0  0  0
    6.2102    3.5854    0.0000 N   0  0  0  0  0  0  0  0  0  0  0  0
    6.9246    3.1729    0.0000 C   0  0  0  0  0  0  0  0  0  0  0  0
    5.4957    3.1729    0.0000 C   0  0  0  0  0  0  0  0  0  0  0  0
    5.4957    2.3479    0.0000 C   0  0  0  0  0  0  0  0  0  0  0  0
    4.7812    1.9354    0.0000 C   0  0  0  0  0  0  0  0  0  0  0  0
    4.0668    2.3479    0.0000 C   0  0  0  0  0  0  0  0  0  0  0  0
    3.3523    1.9354    0.0000 C   0  0  0  0  0  0  0  0  0  0  0  0
    3.3523    1.1104    0.0000 N   0  0  0  0  0  0  0  0  0  0  0  0
    2.6378    0.6979    0.0000 C   0  0  0  0  0  0  0  0  0  0  0  0
    2.6378   -0.1271    0.0000 N   0  0  0  0  0  0  0  0  0  0  0  0
    3.3523   -0.5396    0.0000 C   0  0  0  0  0  0  0  0  0  0  0  0
    3.3523   -1.3646    0.0000 C   0  0  0  0  0  0  0  0  0  0  0  0
    2.6378   -1.7771    0.0000 O   0  0  0  0  0  0  0  0  0  0  0  0
    1.9233   -1.3646    0.0000 C   0  0  0  0  0  0  0  0  0  0  0  0
    1.9233   -0.5396    0.0000 C   0  0  0  0  0  0  0  0  0  0  0  0
    1.9233    1.1104    0.0000 C   0  0  0  0  0  0  0  0  0  0  0  0
    1.1387    0.8555    0.0000 N   0  0  0  0  0  0  0  0  0  0  0  0
    0.6538    1.5229    0.0000 C   0  0  0  0  0  0  0  0  0  0  0  0
   -0.1712    1.5229    0.0000 C   0  0  0  0  0  0  0  0  0  0  0  0
   -0.5837    0.8085    0.0000 N   0  0  0  0  0  0  0  0  0  0  0  0
   -0.1712    0.0940    0.0000 C   0  0  0  0  0  0  0  0  0  0  0  0
   -1.4087    0.8085    0.0000 C   0  0  0  0  0  0  0  0  0  0  0  0
   -1.8212    0.0940    0.0000 N   0  0  0  0  0  0  0  0  0  0  0  0
   -2.6462    0.0940    0.0000 C   0  0  0  0  0  0  0  0  0  0  0  0
   -3.0587    0.8085    0.0000 C   0  0  0  0  0  0  0  0  0  0  0  0
   -3.8837    0.8085    0.0000 C   0  0  0  0  0  0  0  0  0  0  0  0
   -4.2962    0.0940    0.0000 O   0  0  0  0  0  0  0  0  0  0  0  0
   -4.2962    1.5229    0.0000 N   0  0  0  0  0  0  0  0  0  0  0  0
   -5.1212    1.5229    0.0000 O   0  0  0  0  0  0  0  0  0  0  0  0
   -2.6462    1.5229    0.0000 C   0  0  0  0  0  0  0  0  0  0  0  0
   -1.8212    1.5229    0.0000 N   0  0  0  0  0  0  0  0  0  0  0  0
    1.1387    2.1904    0.0000 N   0  0  0  0  0  0  0  0  0  0  0  0
    0.8838    2.9750    0.0000 C   0  0  0  0  0  0  0  0  0  0  0  0
    1.9233    1.9354    0.0000 C   0  0  0  0  0  0  0  0  0  0  0  0
    2.6378    2.3479    0.0000 N   0  0  0  0  0  0  0  0  0  0  0  0
    4.0668    3.1729    0.0000 C   0  0  0  0  0  0  0  0  0  0  0  0
    4.7812    3.5854    0.0000 C   0  0  0  0  0  0  0  0  0  0  0  0
  1  2  1  0  0  0  0
  2  3  1  0  0  0  0
  2  4  1  0  0  0  0
  4  5  4  0  0  0  0
  5  6  4  0  0  0  0
  6  7  4  0  0  0  0
  7  8  1  0  0  0  0
  8  9  4  0  0  0  0
  9 10  4  0  0  0  0
 10 11  1  0  0  0  0
 11 12  1  0  0  0  0
 12 13  1  0  0  0  0
 13 14  1  0  0  0  0
 14 15  1  0  0  0  0
 15 16  1  0  0  0  0
 11 16  1  0  0  0  0
 10 17  4  0  0  0  0
 17 18  4  0  0  0  0
 18 19  4  0  0  0  0
 19 20  1  0  0  0  0
 20 21  1  0  0  0  0
 21 22  1  0  0  0  0
 21 23  1  0  0  0  0
 23 24  4  0  0  0  0
 24 25  4  0  0  0  0
 25 26  4  0  0  0  0
 26 27  1  0  0  0  0
 27 28  2  0  0  0  0
 27 29  1  0  0  0  0
 29 30  1  0  0  0  0
 26 31  4  0  0  0  0
 31 32  4  0  0  0  0
 23 32  4  0  0  0  0
 19 33  4  0  0  0  0
 33 34  1  0  0  0  0
 33 35  4  0  0  0  0
 17 35  4  0  0  0  0
 35 36  4  0  0  0  0
  8 36  4  0  0  0  0
  7 37  4  0  0  0  0
 37 38  4  0  0  0  0
  4 38  4  0  0  0  0
M  END
>  <Molecule ChEMBL ID>
CHEMBL3827296

>  <Compound Key>
10p

>  <Document ChEMBL ID>
CHEMBL3826921

>  <HDAC1>
1

$$$$

  Mrv1808 03272221002D          

 39 43  0  0  0  0            999 V2000
   -0.1712   -2.1269    0.0000 C   0  0  0  0  0  0  0  0  0  0  0  0
   -0.5837   -1.4124    0.0000 N   0  0  0  0  0  0  0  0  0  0  0  0
   -0.1712   -0.6979    0.0000 C   0  0  0  0  0  0  0  0  0  0  0  0
    0.6538   -0.6979    0.0000 C   0  0  0  0  0  0  0  0  0  0  0  0
    1.1387   -0.0305    0.0000 N   0  0  0  0  0  0  0  0  0  0  0  0
    1.9233   -0.2854    0.0000 C   0  0  0  0  0  0  0  0  0  0  0  0
    2.6378    0.1271    0.0000 C   0  0  0  0  0  0  0  0  0  0  0  0
    2.6378    0.9521    0.0000 N   0  0  0  0  0  0  0  0  0  0  0  0
    1.9233    1.3646    0.0000 C   0  0  0  0  0  0  0  0  0  0  0  0
    1.9233    2.1896    0.0000 C   0  0  0  0  0  0  0  0  0  0  0  0
    2.6378    2.6021    0.0000 O   0  0  0  0  0  0  0  0  0  0  0  0
    3.3523    2.1896    0.0000 C   0  0  0  0  0  0  0  0  0  0  0  0
    3.3523    1.3646    0.0000 C   0  0  0  0  0  0  0  0  0  0  0  0
    3.3523   -0.2854    0.0000 N   0  0  0  0  0  0  0  0  0  0  0  0
    3.3523   -1.1104    0.0000 C   0  0  0  0  0  0  0  0  0  0  0  0
    4.0668   -1.5229    0.0000 C   0  0  0  0  0  0  0  0  0  0  0  0
    4.7812   -1.1104    0.0000 C   0  0  0  0  0  0  0  0  0  0  0  0
    5.4957   -1.5229    0.0000 C   0  0  0  0  0  0  0  0  0  0  0  0
    5.4957   -2.3479    0.0000 C   0  0  0  0  0  0  0  0  0  0  0  0
    6.2102   -2.7604    0.0000 S   0  0  0  0  0  0  0  0  0  0  0  0
    6.9246   -3.1729    0.0000 C   0  0  0  0  0  0  0  0  0  0  0  0
    6.6227   -2.0460    0.0000 O   0  0  0  0  0  0  0  0  0  0  0  0
    5.7977   -3.4749    0.0000 O   0  0  0  0  0  0  0  0  0  0  0  0
    4.7812   -2.7604    0.0000 C   0  0  0  0  0  0  0  0  0  0  0  0
    4.0668   -2.3479    0.0000 C   0  0  0  0  0  0  0  0  0  0  0  0
    2.6378   -1.5229    0.0000 N   0  0  0  0  0  0  0  0  0  0  0  0
    1.9233   -1.1104    0.0000 C   0  0  0  0  0  0  0  0  0  0  0  0
    1.1387   -1.3654    0.0000 N   0  0  0  0  0  0  0  0  0  0  0  0
    0.8838   -2.1500    0.0000 C   0  0  0  0  0  0  0  0  0  0  0  0
   -1.4087   -1.4124    0.0000 C   0  0  0  0  0  0  0  0  0  0  0  0
   -1.8212   -2.1269    0.0000 N   0  0  0  0  0  0  0  0  0  0  0  0
   -2.6462   -2.1269    0.0000 C   0  0  0  0  0  0  0  0  0  0  0  0
   -3.0587   -1.4124    0.0000 C   0  0  0  0  0  0  0  0  0  0  0  0
   -3.8837   -1.4124    0.0000 C   0  0  0  0  0  0  0  0  0  0  0  0
   -4.2962   -2.1269    0.0000 O   0  0  0  0  0  0  0  0  0  0  0  0
   -4.2962   -0.6979    0.0000 N   0  0  0  0  0  0  0  0  0  0  0  0
   -5.1212   -0.6979    0.0000 O   0  0  0  0  0  0  0  0  0  0  0  0
   -2.6462   -0.6979    0.0000 C   0  0  0  0  0  0  0  0  0  0  0  0
   -1.8212   -0.6979    0.0000 N   0  0  0  0  0  0  0  0  0  0  0  0
  1  2  1  0  0  0  0
  2  3  1  0  0  0  0
  3  4  1  0  0  0  0
  4  5  4  0  0  0  0
  5  6  4  0  0  0  0
  6  7  4  0  0  0  0
  7  8  1  0  0  0  0
  8  9  1  0  0  0  0
  9 10  1  0  0  0  0
 10 11  1  0  0  0  0
 11 12  1  0  0  0  0
 12 13  1  0  0  0  0
  8 13  1  0  0  0  0
  7 14  4  0  0  0  0
 14 15  4  0  0  0  0
 15 16  1  0  0  0  0
 16 17  4  0  0  0  0
 17 18  4  0  0  0  0
 18 19  4  0  0  0  0
 19 20  1  0  0  0  0
 20 21  1  0  0  0  0
 20 22  2  0  0  0  0
 20 23  2  0  0  0  0
 19 24  4  0  0  0  0
 24 25  4  0  0  0  0
 16 25  4  0  0  0  0
 15 26  4  0  0  0  0
 26 27  4  0  0  0  0
  6 27  4  0  0  0  0
 27 28  4  0  0  0  0
  4 28  4  0  0  0  0
 28 29  1  0  0  0  0
  2 30  1  0  0  0  0
 30 31  4  0  0  0  0
 31 32  4  0  0  0  0
 32 33  4  0  0  0  0
 33 34  1  0  0  0  0
 34 35  2  0  0  0  0
 34 36  1  0  0  0  0
 36 37  1  0  0  0  0
 33 38  4  0  0  0  0
 38 39  4  0  0  0  0
 30 39  4  0  0  0  0
M  END
>  <Molecule ChEMBL ID>
CHEMBL3827865

>  <Compound Key>
10j

>  <Document ChEMBL ID>
CHEMBL3826921

>  <HDAC1>
1

$$$$

  Mrv1808 03272221002D          

 38 43  0  0  0  0            999 V2000
   -0.1712   -4.6019    0.0000 C   0  0  0  0  0  0  0  0  0  0  0  0
   -0.5837   -3.8874    0.0000 N   0  0  0  0  0  0  0  0  0  0  0  0
   -0.1712   -3.1729    0.0000 C   0  0  0  0  0  0  0  0  0  0  0  0
    0.6538   -3.1729    0.0000 C   0  0  0  0  0  0  0  0  0  0  0  0
    1.1387   -2.5055    0.0000 N   0  0  0  0  0  0  0  0  0  0  0  0
    1.9233   -2.7604    0.0000 C   0  0  0  0  0  0  0  0  0  0  0  0
    2.6378   -2.3479    0.0000 C   0  0  0  0  0  0  0  0  0  0  0  0
    2.6378   -1.5229    0.0000 N   0  0  0  0  0  0  0  0  0  0  0  0
    1.9233   -1.1104    0.0000 C   0  0  0  0  0  0  0  0  0  0  0  0
    1.9233   -0.2854    0.0000 C   0  0  0  0  0  0  0  0  0  0  0  0
    2.6378    0.1271    0.0000 O   0  0  0  0  0  0  0  0  0  0  0  0
    3.3523   -0.2854    0.0000 C   0  0  0  0  0  0  0  0  0  0  0  0
    3.3523   -1.1104    0.0000 C   0  0  0  0  0  0  0  0  0  0  0  0
    3.3523   -2.7604    0.0000 N   0  0  0  0  0  0  0  0  0  0  0  0
    3.3523   -3.5854    0.0000 C   0  0  0  0  0  0  0  0  0  0  0  0
    4.0668   -3.9979    0.0000 C   0  0  0  0  0  0  0  0  0  0  0  0
    4.7812   -3.5854    0.0000 C   0  0  0  0  0  0  0  0  0  0  0  0
    5.4957   -3.9979    0.0000 C   0  0  0  0  0  0  0  0  0  0  0  0
    5.4957   -4.8229    0.0000 C   0  0  0  0  0  0  0  0  0  0  0  0
    4.7812   -5.2354    0.0000 C   0  0  0  0  0  0  0  0  0  0  0  0
    4.0668   -4.8229    0.0000 C   0  0  0  0  0  0  0  0  0  0  0  0
    4.9528   -6.0424    0.0000 O   0  0  0  0  0  0  0  0  0  0  0  0
    5.7732   -6.1287    0.0000 C   0  0  0  0  0  0  0  0  0  0  0  0
    6.1088   -5.3750    0.0000 O   0  0  0  0  0  0  0  0  0  0  0  0
    2.6378   -3.9979    0.0000 N   0  0  0  0  0  0  0  0  0  0  0  0
    1.9233   -3.5854    0.0000 C   0  0  0  0  0  0  0  0  0  0  0  0
    1.1387   -3.8404    0.0000 N   0  0  0  0  0  0  0  0  0  0  0  0
    0.8838   -4.6250    0.0000 C   0  0  0  0  0  0  0  0  0  0  0  0
   -1.4087   -3.8874    0.0000 C   0  0  0  0  0  0  0  0  0  0  0  0
   -1.8212   -4.6019    0.0000 N   0  0  0  0  0  0  0  0  0  0  0  0
   -2.6462   -4.6019    0.0000 C   0  0  0  0  0  0  0  0  0  0  0  0
   -3.0587   -3.8874    0.0000 C   0  0  0  0  0  0  0  0  0  0  0  0
   -3.8837   -3.8874    0.0000 C   0  0  0  0  0  0  0  0  0  0  0  0
   -4.2962   -4.6019    0.0000 O   0  0  0  0  0  0  0  0  0  0  0  0
   -4.2962   -3.1729    0.0000 N   0  0  0  0  0  0  0  0  0  0  0  0
   -5.1212   -3.1729    0.0000 O   0  0  0  0  0  0  0  0  0  0  0  0
   -2.6462   -3.1729    0.0000 C   0  0  0  0  0  0  0  0  0  0  0  0
   -1.8212   -3.1729    0.0000 N   0  0  0  0  0  0  0  0  0  0  0  0
  1  2  1  0  0  0  0
  2  3  1  0  0  0  0
  3  4  1  0  0  0  0
  4  5  4  0  0  0  0
  5  6  4  0  0  0  0
  6  7  4  0  0  0  0
  7  8  1  0  0  0  0
  8  9  1  0  0  0  0
  9 10  1  0  0  0  0
 10 11  1  0  0  0  0
 11 12  1  0  0  0  0
 12 13  1  0  0  0  0
  8 13  1  0  0  0  0
  7 14  4  0  0  0  0
 14 15  4  0  0  0  0
 15 16  1  0  0  0  0
 16 17  4  0  0  0  0
 17 18  4  0  0  0  0
 18 19  4  0  0  0  0
 19 20  4  0  0  0  0
 20 21  4  0  0  0  0
 16 21  4  0  0  0  0
 20 22  1  0  0  0  0
 22 23  1  0  0  0  0
 23 24  1  0  0  0  0
 19 24  1  0  0  0  0
 15 25  4  0  0  0  0
 25 26  4  0  0  0  0
  6 26  4  0  0  0  0
 26 27  4  0  0  0  0
  4 27  4  0  0  0  0
 27 28  1  0  0  0  0
  2 29  1  0  0  0  0
 29 30  4  0  0  0  0
 30 31  4  0  0  0  0
 31 32  4  0  0  0  0
 32 33  1  0  0  0  0
 33 34  2  0  0  0  0
 33 35  1  0  0  0  0
 35 36  1  0  0  0  0
 32 37  4  0  0  0  0
 37 38  4  0  0  0  0
 29 38  4  0  0  0  0
M  END
>  <Molecule ChEMBL ID>
CHEMBL3828180

>  <Compound Key>
10i

>  <Document ChEMBL ID>
CHEMBL3826921

>  <HDAC1>
1

$$$$

  Mrv1808 03272221002D          

 36 40  0  0  0  0            999 V2000
    6.2102    3.5854    0.0000 C   0  0  0  0  0  0  0  0  0  0  0  0
    5.4957    3.1729    0.0000 C   0  0  0  0  0  0  0  0  0  0  0  0
    5.4957    2.3479    0.0000 C   0  0  0  0  0  0  0  0  0  0  0  0
    4.7812    1.9354    0.0000 C   0  0  0  0  0  0  0  0  0  0  0  0
    4.0668    2.3479    0.0000 C   0  0  0  0  0  0  0  0  0  0  0  0
    3.3523    1.9354    0.0000 C   0  0  0  0  0  0  0  0  0  0  0  0
    3.3523    1.1104    0.0000 N   0  0  0  0  0  0  0  0  0  0  0  0
    2.6378    0.6979    0.0000 C   0  0  0  0  0  0  0  0  0  0  0  0
    2.6378   -0.1271    0.0000 N   0  0  0  0  0  0  0  0  0  0  0  0
    3.3523   -0.5396    0.0000 C   0  0  0  0  0  0  0  0  0  0  0  0
    3.3523   -1.3646    0.0000 C   0  0  0  0  0  0  0  0  0  0  0  0
    2.6378   -1.7771    0.0000 O   0  0  0  0  0  0  0  0  0  0  0  0
    1.9233   -1.3646    0.0000 C   0  0  0  0  0  0  0  0  0  0  0  0
    1.9233   -0.5396    0.0000 C   0  0  0  0  0  0  0  0  0  0  0  0
    1.9233    1.1104    0.0000 C   0  0  0  0  0  0  0  0  0  0  0  0
    1.1387    0.8555    0.0000 N   0  0  0  0  0  0  0  0  0  0  0  0
    0.6538    1.5229    0.0000 C   0  0  0  0  0  0  0  0  0  0  0  0
   -0.1712    1.5229    0.0000 C   0  0  0  0  0  0  0  0  0  0  0  0
   -0.5837    0.8085    0.0000 N   0  0  0  0  0  0  0  0  0  0  0  0
   -0.1712    0.0940    0.0000 C   0  0  0  0  0  0  0  0  0  0  0  0
   -1.4087    0.8085    0.0000 C   0  0  0  0  0  0  0  0  0  0  0  0
   -1.8212    0.0940    0.0000 N   0  0  0  0  0  0  0  0  0  0  0  0
   -2.6462    0.0940    0.0000 C   0  0  0  0  0  0  0  0  0  0  0  0
   -3.0587    0.8085    0.0000 C   0  0  0  0  0  0  0  0  0  0  0  0
   -3.8837    0.8085    0.0000 C   0  0  0  0  0  0  0  0  0  0  0  0
   -4.2962    0.0940    0.0000 O   0  0  0  0  0  0  0  0  0  0  0  0
   -4.2962    1.5229    0.0000 N   0  0  0  0  0  0  0  0  0  0  0  0
   -5.1212    1.5229    0.0000 O   0  0  0  0  0  0  0  0  0  0  0  0
   -2.6462    1.5229    0.0000 C   0  0  0  0  0  0  0  0  0  0  0  0
   -1.8212    1.5229    0.0000 N   0  0  0  0  0  0  0  0  0  0  0  0
    1.1387    2.1904    0.0000 N   0  0  0  0  0  0  0  0  0  0  0  0
    0.8838    2.9750    0.0000 C   0  0  0  0  0  0  0  0  0  0  0  0
    1.9233    1.9354    0.0000 C   0  0  0  0  0  0  0  0  0  0  0  0
    2.6378    2.3479    0.0000 N   0  0  0  0  0  0  0  0  0  0  0  0
    4.0668    3.1729    0.0000 C   0  0  0  0  0  0  0  0  0  0  0  0
    4.7812    3.5854    0.0000 C   0  0  0  0  0  0  0  0  0  0  0  0
  1  2  1  0  0  0  0
  2  3  4  0  0  0  0
  3  4  4  0  0  0  0
  4  5  4  0  0  0  0
  5  6  1  0  0  0  0
  6  7  4  0  0  0  0
  7  8  4  0  0  0  0
  8  9  1  0  0  0  0
  9 10  1  0  0  0  0
 10 11  1  0  0  0  0
 11 12  1  0  0  0  0
 12 13  1  0  0  0  0
 13 14  1  0  0  0  0
  9 14  1  0  0  0  0
  8 15  4  0  0  0  0
 15 16  4  0  0  0  0
 16 17  4  0  0  0  0
 17 18  1  0  0  0  0
 18 19  1  0  0  0  0
 19 20  1  0  0  0  0
 19 21  1  0  0  0  0
 21 22  4  0  0  0  0
 22 23  4  0  0  0  0
 23 24  4  0  0  0  0
 24 25  1  0  0  0  0
 25 26  2  0  0  0  0
 25 27  1  0  0  0  0
 27 28  1  0  0  0  0
 24 29  4  0  0  0  0
 29 30  4  0  0  0  0
 21 30  4  0  0  0  0
 17 31  4  0  0  0  0
 31 32  1  0  0  0  0
 31 33  4  0  0  0  0
 15 33  4  0  0  0  0
 33 34  4  0  0  0  0
  6 34  4  0  0  0  0
  5 35  4  0  0  0  0
 35 36  4  0  0  0  0
  2 36  4  0  0  0  0
M  END
>  <Molecule ChEMBL ID>
CHEMBL3827650

>  <Compound Key>
10k

>  <Document ChEMBL ID>
CHEMBL3826921

>  <HDAC1>
1

$$$$

  Mrv1808 03272221002D          

 38 42  0  0  0  0            999 V2000
    1.4358   -2.7631    0.0000 C   0  0  0  0  0  0  0  0  0  0  0  0
    0.8838   -2.1500    0.0000 C   0  0  0  0  0  0  0  0  0  0  0  0
    1.1387   -1.3654    0.0000 N   0  0  0  0  0  0  0  0  0  0  0  0
    0.6538   -0.6979    0.0000 C   0  0  0  0  0  0  0  0  0  0  0  0
   -0.1712   -0.6979    0.0000 C   0  0  0  0  0  0  0  0  0  0  0  0
   -0.5837    0.0165    0.0000 N   0  0  0  0  0  0  0  0  0  0  0  0
   -0.1712    0.7310    0.0000 C   0  0  0  0  0  0  0  0  0  0  0  0
   -1.4087    0.0165    0.0000 C   0  0  0  0  0  0  0  0  0  0  0  0
   -1.8212   -0.6979    0.0000 N   0  0  0  0  0  0  0  0  0  0  0  0
   -2.6462   -0.6979    0.0000 C   0  0  0  0  0  0  0  0  0  0  0  0
   -3.0587    0.0165    0.0000 C   0  0  0  0  0  0  0  0  0  0  0  0
   -3.8837    0.0165    0.0000 C   0  0  0  0  0  0  0  0  0  0  0  0
   -4.2962   -0.6979    0.0000 O   0  0  0  0  0  0  0  0  0  0  0  0
   -4.2962    0.7310    0.0000 N   0  0  0  0  0  0  0  0  0  0  0  0
   -5.1212    0.7310    0.0000 O   0  0  0  0  0  0  0  0  0  0  0  0
   -2.6462    0.7310    0.0000 C   0  0  0  0  0  0  0  0  0  0  0  0
   -1.8212    0.7310    0.0000 N   0  0  0  0  0  0  0  0  0  0  0  0
    1.1387   -0.0305    0.0000 N   0  0  0  0  0  0  0  0  0  0  0  0
    1.9233   -0.2854    0.0000 C   0  0  0  0  0  0  0  0  0  0  0  0
    2.6378    0.1271    0.0000 C   0  0  0  0  0  0  0  0  0  0  0  0
    2.6378    0.9521    0.0000 N   0  0  0  0  0  0  0  0  0  0  0  0
    1.9233    1.3646    0.0000 C   0  0  0  0  0  0  0  0  0  0  0  0
    1.9233    2.1896    0.0000 C   0  0  0  0  0  0  0  0  0  0  0  0
    2.6378    2.6021    0.0000 O   0  0  0  0  0  0  0  0  0  0  0  0
    3.3523    2.1896    0.0000 C   0  0  0  0  0  0  0  0  0  0  0  0
    3.3523    1.3646    0.0000 C   0  0  0  0  0  0  0  0  0  0  0  0
    3.3523   -0.2854    0.0000 N   0  0  0  0  0  0  0  0  0  0  0  0
    3.3523   -1.1104    0.0000 C   0  0  0  0  0  0  0  0  0  0  0  0
    4.0668   -1.5229    0.0000 C   0  0  0  0  0  0  0  0  0  0  0  0
    4.7812   -1.1104    0.0000 C   0  0  0  0  0  0  0  0  0  0  0  0
    5.4957   -1.5229    0.0000 C   0  0  0  0  0  0  0  0  0  0  0  0
    5.4957   -2.3479    0.0000 C   0  0  0  0  0  0  0  0  0  0  0  0
    6.2102   -2.7604    0.0000 O   0  0  0  0  0  0  0  0  0  0  0  0
    6.9246   -2.3479    0.0000 C   0  0  0  0  0  0  0  0  0  0  0  0
    4.7812   -2.7604    0.0000 C   0  0  0  0  0  0  0  0  0  0  0  0
    4.0668   -2.3479    0.0000 C   0  0  0  0  0  0  0  0  0  0  0  0
    2.6378   -1.5229    0.0000 N   0  0  0  0  0  0  0  0  0  0  0  0
    1.9233   -1.1104    0.0000 C   0  0  0  0  0  0  0  0  0  0  0  0
  1  2  1  0  0  0  0
  2  3  1  0  0  0  0
  3  4  4  0  0  0  0
  4  5  1  0  0  0  0
  5  6  1  0  0  0  0
  6  7  1  0  0  0  0
  6  8  1  0  0  0  0
  8  9  4  0  0  0  0
  9 10  4  0  0  0  0
 10 11  4  0  0  0  0
 11 12  1  0  0  0  0
 12 13  2  0  0  0  0
 12 14  1  0  0  0  0
 14 15  1  0  0  0  0
 11 16  4  0  0  0  0
 16 17  4  0  0  0  0
  8 17  4  0  0  0  0
  4 18  4  0  0  0  0
 18 19  4  0  0  0  0
 19 20  4  0  0  0  0
 20 21  1  0  0  0  0
 21 22  1  0  0  0  0
 22 23  1  0  0  0  0
 23 24  1  0  0  0  0
 24 25  1  0  0  0  0
 25 26  1  0  0  0  0
 21 26  1  0  0  0  0
 20 27  4  0  0  0  0
 27 28  4  0  0  0  0
 28 29  1  0  0  0  0
 29 30  4  0  0  0  0
 30 31  4  0  0  0  0
 31 32  4  0  0  0  0
 32 33  1  0  0  0  0
 33 34  1  0  0  0  0
 32 35  4  0  0  0  0
 35 36  4  0  0  0  0
 29 36  4  0  0  0  0
 28 37  4  0  0  0  0
 37 38  4  0  0  0  0
 19 38  4  0  0  0  0
  3 38  4  0  0  0  0
M  END
>  <Molecule ChEMBL ID>
CHEMBL3827738

>  <Compound Key>
18a

>  <Document ChEMBL ID>
CHEMBL3826921

>  <HDAC1>
1

$$$$

  Mrv1808 03272221002D          

 37 41  0  0  0  0            999 V2000
    6.2102    4.4104    0.0000 C   0  0  0  0  0  0  0  0  0  0  0  0
    6.2102    3.5854    0.0000 O   0  0  0  0  0  0  0  0  0  0  0  0
    5.4957    3.1729    0.0000 C   0  0  0  0  0  0  0  0  0  0  0  0
    5.4957    2.3479    0.0000 C   0  0  0  0  0  0  0  0  0  0  0  0
    4.7812    1.9354    0.0000 C   0  0  0  0  0  0  0  0  0  0  0  0
    4.0668    2.3479    0.0000 C   0  0  0  0  0  0  0  0  0  0  0  0
    3.3523    1.9354    0.0000 C   0  0  0  0  0  0  0  0  0  0  0  0
    3.3523    1.1104    0.0000 N   0  0  0  0  0  0  0  0  0  0  0  0
    2.6378    0.6979    0.0000 C   0  0  0  0  0  0  0  0  0  0  0  0
    2.6378   -0.1271    0.0000 N   0  0  0  0  0  0  0  0  0  0  0  0
    3.3523   -0.5396    0.0000 C   0  0  0  0  0  0  0  0  0  0  0  0
    3.3523   -1.3646    0.0000 C   0  0  0  0  0  0  0  0  0  0  0  0
    2.6378   -1.7771    0.0000 O   0  0  0  0  0  0  0  0  0  0  0  0
    1.9233   -1.3646    0.0000 C   0  0  0  0  0  0  0  0  0  0  0  0
    1.9233   -0.5396    0.0000 C   0  0  0  0  0  0  0  0  0  0  0  0
    1.9233    1.1104    0.0000 C   0  0  0  0  0  0  0  0  0  0  0  0
    1.1387    0.8555    0.0000 N   0  0  0  0  0  0  0  0  0  0  0  0
    0.6538    1.5229    0.0000 C   0  0  0  0  0  0  0  0  0  0  0  0
   -0.1712    1.5229    0.0000 C   0  0  0  0  0  0  0  0  0  0  0  0
   -0.5837    0.8085    0.0000 N   0  0  0  0  0  0  0  0  0  0  0  0
   -0.1712    0.0940    0.0000 C   0  0  0  0  0  0  0  0  0  0  0  0
   -1.4087    0.8085    0.0000 C   0  0  0  0  0  0  0  0  0  0  0  0
   -1.8212    0.0940    0.0000 N   0  0  0  0  0  0  0  0  0  0  0  0
   -2.6462    0.0940    0.0000 C   0  0  0  0  0  0  0  0  0  0  0  0
   -3.0587    0.8085    0.0000 C   0  0  0  0  0  0  0  0  0  0  0  0
   -3.8837    0.8085    0.0000 C   0  0  0  0  0  0  0  0  0  0  0  0
   -4.2962    0.0940    0.0000 O   0  0  0  0  0  0  0  0  0  0  0  0
   -4.2962    1.5229    0.0000 N   0  0  0  0  0  0  0  0  0  0  0  0
   -5.1212    1.5229    0.0000 O   0  0  0  0  0  0  0  0  0  0  0  0
   -2.6462    1.5229    0.0000 C   0  0  0  0  0  0  0  0  0  0  0  0
   -1.8212    1.5229    0.0000 N   0  0  0  0  0  0  0  0  0  0  0  0
    1.1387    2.1904    0.0000 N   0  0  0  0  0  0  0  0  0  0  0  0
    0.8838    2.9750    0.0000 C   0  0  0  0  0  0  0  0  0  0  0  0
    1.9233    1.9354    0.0000 C   0  0  0  0  0  0  0  0  0  0  0  0
    2.6378    2.3479    0.0000 N   0  0  0  0  0  0  0  0  0  0  0  0
    4.0668    3.1729    0.0000 C   0  0  0  0  0  0  0  0  0  0  0  0
    4.7812    3.5854    0.0000 N   0  0  0  0  0  0  0  0  0  0  0  0
  1  2  1  0  0  0  0
  2  3  1  0  0  0  0
  3  4  4  0  0  0  0
  4  5  4  0  0  0  0
  5  6  4  0  0  0  0
  6  7  1  0  0  0  0
  7  8  4  0  0  0  0
  8  9  4  0  0  0  0
  9 10  1  0  0  0  0
 10 11  1  0  0  0  0
 11 12  1  0  0  0  0
 12 13  1  0  0  0  0
 13 14  1  0  0  0  0
 14 15  1  0  0  0  0
 10 15  1  0  0  0  0
  9 16  4  0  0  0  0
 16 17  4  0  0  0  0
 17 18  4  0  0  0  0
 18 19  1  0  0  0  0
 19 20  1  0  0  0  0
 20 21  1  0  0  0  0
 20 22  1  0  0  0  0
 22 23  4  0  0  0  0
 23 24  4  0  0  0  0
 24 25  4  0  0  0  0
 25 26  1  0  0  0  0
 26 27  2  0  0  0  0
 26 28  1  0  0  0  0
 28 29  1  0  0  0  0
 25 30  4  0  0  0  0
 30 31  4  0  0  0  0
 22 31  4  0  0  0  0
 18 32  4  0  0  0  0
 32 33  1  0  0  0  0
 32 34  4  0  0  0  0
 16 34  4  0  0  0  0
 34 35  4  0  0  0  0
  7 35  4  0  0  0  0
  6 36  4  0  0  0  0
 36 37  4  0  0  0  0
  3 37  4  0  0  0  0
M  END
>  <Molecule ChEMBL ID>
CHEMBL3827281

>  <Compound Key>
10w

>  <Document ChEMBL ID>
CHEMBL3826921

>  <HDAC1>
1

$$$$

  Mrv1808 03272221002D          

 40 44  0  0  0  0            999 V2000
   -0.1712   -2.1269    0.0000 C   0  0  0  0  0  0  0  0  0  0  0  0
   -0.5837   -1.4124    0.0000 N   0  0  0  0  0  0  0  0  0  0  0  0
   -0.1712   -0.6979    0.0000 C   0  0  0  0  0  0  0  0  0  0  0  0
    0.6538   -0.6979    0.0000 C   0  0  0  0  0  0  0  0  0  0  0  0
    1.1387   -0.0305    0.0000 N   0  0  0  0  0  0  0  0  0  0  0  0
    1.9233   -0.2854    0.0000 C   0  0  0  0  0  0  0  0  0  0  0  0
    2.6378    0.1271    0.0000 C   0  0  0  0  0  0  0  0  0  0  0  0
    2.6378    0.9521    0.0000 N   0  0  0  0  0  0  0  0  0  0  0  0
    1.9233    1.3646    0.0000 C   0  0  0  0  0  0  0  0  0  0  0  0
    1.9233    2.1896    0.0000 C   0  0  0  0  0  0  0  0  0  0  0  0
    2.6378    2.6021    0.0000 O   0  0  0  0  0  0  0  0  0  0  0  0
    3.3523    2.1896    0.0000 C   0  0  0  0  0  0  0  0  0  0  0  0
    3.3523    1.3646    0.0000 C   0  0  0  0  0  0  0  0  0  0  0  0
    3.3523   -0.2854    0.0000 N   0  0  0  0  0  0  0  0  0  0  0  0
    3.3523   -1.1104    0.0000 C   0  0  0  0  0  0  0  0  0  0  0  0
    4.0668   -1.5229    0.0000 C   0  0  0  0  0  0  0  0  0  0  0  0
    4.7812   -1.1104    0.0000 C   0  0  0  0  0  0  0  0  0  0  0  0
    5.4957   -1.5229    0.0000 C   0  0  0  0  0  0  0  0  0  0  0  0
    5.4957   -2.3479    0.0000 C   0  0  0  0  0  0  0  0  0  0  0  0
    6.2102   -2.7604    0.0000 Cl  0  0  0  0  0  0  0  0  0  0  0  0
    4.7812   -2.7604    0.0000 C   0  0  0  0  0  0  0  0  0  0  0  0
    4.7812   -3.5854    0.0000 C   0  0  0  0  0  0  0  0  0  0  0  0
    4.7812   -4.4104    0.0000 F   0  0  0  0  0  0  0  0  0  0  0  0
    3.9562   -3.5854    0.0000 F   0  0  0  0  0  0  0  0  0  0  0  0
    5.6062   -3.5854    0.0000 F   0  0  0  0  0  0  0  0  0  0  0  0
    4.0668   -2.3479    0.0000 C   0  0  0  0  0  0  0  0  0  0  0  0
    2.6378   -1.5229    0.0000 N   0  0  0  0  0  0  0  0  0  0  0  0
    1.9233   -1.1104    0.0000 C   0  0  0  0  0  0  0  0  0  0  0  0
    1.1387   -1.3654    0.0000 N   0  0  0  0  0  0  0  0  0  0  0  0
    0.8838   -2.1500    0.0000 C   0  0  0  0  0  0  0  0  0  0  0  0
   -1.4087   -1.4124    0.0000 C   0  0  0  0  0  0  0  0  0  0  0  0
   -1.8212   -2.1269    0.0000 N   0  0  0  0  0  0  0  0  0  0  0  0
   -2.6462   -2.1269    0.0000 C   0  0  0  0  0  0  0  0  0  0  0  0
   -3.0587   -1.4124    0.0000 C   0  0  0  0  0  0  0  0  0  0  0  0
   -3.8837   -1.4124    0.0000 C   0  0  0  0  0  0  0  0  0  0  0  0
   -4.2962   -2.1269    0.0000 O   0  0  0  0  0  0  0  0  0  0  0  0
   -4.2962   -0.6979    0.0000 N   0  0  0  0  0  0  0  0  0  0  0  0
   -5.1212   -0.6979    0.0000 O   0  0  0  0  0  0  0  0  0  0  0  0
   -2.6462   -0.6979    0.0000 C   0  0  0  0  0  0  0  0  0  0  0  0
   -1.8212   -0.6979    0.0000 N   0  0  0  0  0  0  0  0  0  0  0  0
  1  2  1  0  0  0  0
  2  3  1  0  0  0  0
  3  4  1  0  0  0  0
  4  5  4  0  0  0  0
  5  6  4  0  0  0  0
  6  7  4  0  0  0  0
  7  8  1  0  0  0  0
  8  9  1  0  0  0  0
  9 10  1  0  0  0  0
 10 11  1  0  0  0  0
 11 12  1  0  0  0  0
 12 13  1  0  0  0  0
  8 13  1  0  0  0  0
  7 14  4  0  0  0  0
 14 15  4  0  0  0  0
 15 16  1  0  0  0  0
 16 17  4  0  0  0  0
 17 18  4  0  0  0  0
 18 19  4  0  0  0  0
 19 20  1  0  0  0  0
 19 21  4  0  0  0  0
 21 22  1  0  0  0  0
 22 23  1  0  0  0  0
 22 24  1  0  0  0  0
 22 25  1  0  0  0  0
 21 26  4  0  0  0  0
 16 26  4  0  0  0  0
 15 27  4  0  0  0  0
 27 28  4  0  0  0  0
  6 28  4  0  0  0  0
 28 29  4  0  0  0  0
  4 29  4  0  0  0  0
 29 30  1  0  0  0  0
  2 31  1  0  0  0  0
 31 32  4  0  0  0  0
 32 33  4  0  0  0  0
 33 34  4  0  0  0  0
 34 35  1  0  0  0  0
 35 36  2  0  0  0  0
 35 37  1  0  0  0  0
 37 38  1  0  0  0  0
 34 39  4  0  0  0  0
 39 40  4  0  0  0  0
 31 40  4  0  0  0  0
M  END
>  <Molecule ChEMBL ID>
CHEMBL3828408

>  <Compound Key>
10h

>  <Document ChEMBL ID>
CHEMBL3826921

>  <HDAC1>
1

$$$$

  Mrv1808 03272221002D          

 36 40  0  0  0  0            999 V2000
   -0.1712   -2.1269    0.0000 C   0  0  0  0  0  0  0  0  0  0  0  0
   -0.5837   -1.4124    0.0000 N   0  0  0  0  0  0  0  0  0  0  0  0
   -0.1712   -0.6979    0.0000 C   0  0  0  0  0  0  0  0  0  0  0  0
    0.6538   -0.6979    0.0000 C   0  0  0  0  0  0  0  0  0  0  0  0
    1.1387   -0.0305    0.0000 N   0  0  0  0  0  0  0  0  0  0  0  0
    1.9233   -0.2854    0.0000 C   0  0  0  0  0  0  0  0  0  0  0  0
    2.6378    0.1271    0.0000 C   0  0  0  0  0  0  0  0  0  0  0  0
    2.6378    0.9521    0.0000 N   0  0  0  0  0  0  0  0  0  0  0  0
    1.9233    1.3646    0.0000 C   0  0  0  0  0  0  0  0  0  0  0  0
    1.9233    2.1896    0.0000 C   0  0  0  0  0  0  0  0  0  0  0  0
    2.6378    2.6021    0.0000 O   0  0  0  0  0  0  0  0  0  0  0  0
    3.3523    2.1896    0.0000 C   0  0  0  0  0  0  0  0  0  0  0  0
    3.3523    1.3646    0.0000 C   0  0  0  0  0  0  0  0  0  0  0  0
    3.3523   -0.2854    0.0000 N   0  0  0  0  0  0  0  0  0  0  0  0
    3.3523   -1.1104    0.0000 C   0  0  0  0  0  0  0  0  0  0  0  0
    4.0668   -1.5229    0.0000 C   0  0  0  0  0  0  0  0  0  0  0  0
    4.7812   -1.1104    0.0000 C   0  0  0  0  0  0  0  0  0  0  0  0
    5.4957   -1.5229    0.0000 N   0  0  0  0  0  0  0  0  0  0  0  0
    5.4957   -2.3479    0.0000 C   0  0  0  0  0  0  0  0  0  0  0  0
    6.2102   -2.7604    0.0000 N   0  0  0  0  0  0  0  0  0  0  0  0
    4.7812   -2.7604    0.0000 N   0  0  0  0  0  0  0  0  0  0  0  0
    4.0668   -2.3479    0.0000 C   0  0  0  0  0  0  0  0  0  0  0  0
    2.6378   -1.5229    0.0000 N   0  0  0  0  0  0  0  0  0  0  0  0
    1.9233   -1.1104    0.0000 C   0  0  0  0  0  0  0  0  0  0  0  0
    1.1387   -1.3654    0.0000 N   0  0  0  0  0  0  0  0  0  0  0  0
    0.8838   -2.1500    0.0000 C   0  0  0  0  0  0  0  0  0  0  0  0
   -1.4087   -1.4124    0.0000 C   0  0  0  0  0  0  0  0  0  0  0  0
   -1.8212   -2.1269    0.0000 N   0  0  0  0  0  0  0  0  0  0  0  0
   -2.6462   -2.1269    0.0000 C   0  0  0  0  0  0  0  0  0  0  0  0
   -3.0587   -1.4124    0.0000 C   0  0  0  0  0  0  0  0  0  0  0  0
   -3.8837   -1.4124    0.0000 C   0  0  0  0  0  0  0  0  0  0  0  0
   -4.2962   -2.1269    0.0000 O   0  0  0  0  0  0  0  0  0  0  0  0
   -4.2962   -0.6979    0.0000 N   0  0  0  0  0  0  0  0  0  0  0  0
   -5.1212   -0.6979    0.0000 O   0  0  0  0  0  0  0  0  0  0  0  0
   -2.6462   -0.6979    0.0000 C   0  0  0  0  0  0  0  0  0  0  0  0
   -1.8212   -0.6979    0.0000 N   0  0  0  0  0  0  0  0  0  0  0  0
  1  2  1  0  0  0  0
  2  3  1  0  0  0  0
  3  4  1  0  0  0  0
  4  5  4  0  0  0  0
  5  6  4  0  0  0  0
  6  7  4  0  0  0  0
  7  8  1  0  0  0  0
  8  9  1  0  0  0  0
  9 10  1  0  0  0  0
 10 11  1  0  0  0  0
 11 12  1  0  0  0  0
 12 13  1  0  0  0  0
  8 13  1  0  0  0  0
  7 14  4  0  0  0  0
 14 15  4  0  0  0  0
 15 16  1  0  0  0  0
 16 17  4  0  0  0  0
 17 18  4  0  0  0  0
 18 19  4  0  0  0  0
 19 20  1  0  0  0  0
 19 21  4  0  0  0  0
 21 22  4  0  0  0  0
 16 22  4  0  0  0  0
 15 23  4  0  0  0  0
 23 24  4  0  0  0  0
  6 24  4  0  0  0  0
 24 25  4  0  0  0  0
  4 25  4  0  0  0  0
 25 26  1  0  0  0  0
  2 27  1  0  0  0  0
 27 28  4  0  0  0  0
 28 29  4  0  0  0  0
 29 30  4  0  0  0  0
 30 31  1  0  0  0  0
 31 32  2  0  0  0  0
 31 33  1  0  0  0  0
 33 34  1  0  0  0  0
 30 35  4  0  0  0  0
 35 36  4  0  0  0  0
 27 36  4  0  0  0  0
M  END
>  <Molecule ChEMBL ID>
CHEMBL3827894

>  <Compound Key>
10s

>  <Document ChEMBL ID>
CHEMBL3826921

>  <HDAC1>
1

$$$$

  Mrv1808 03272221002D          

 38 42  0  0  0  0            999 V2000
    6.9246    4.8229    0.0000 C   0  0  0  0  0  0  0  0  0  0  0  0
    6.2102    4.4104    0.0000 C   0  0  0  0  0  0  0  0  0  0  0  0
    6.2102    3.5854    0.0000 N   0  0  0  0  0  0  0  0  0  0  0  0
    5.4957    3.1729    0.0000 C   0  0  0  0  0  0  0  0  0  0  0  0
    5.4957    2.3479    0.0000 C   0  0  0  0  0  0  0  0  0  0  0  0
    4.7812    1.9354    0.0000 C   0  0  0  0  0  0  0  0  0  0  0  0
    4.0668    2.3479    0.0000 C   0  0  0  0  0  0  0  0  0  0  0  0
    3.3523    1.9354    0.0000 C   0  0  0  0  0  0  0  0  0  0  0  0
    3.3523    1.1104    0.0000 N   0  0  0  0  0  0  0  0  0  0  0  0
    2.6378    0.6979    0.0000 C   0  0  0  0  0  0  0  0  0  0  0  0
    2.6378   -0.1271    0.0000 N   0  0  0  0  0  0  0  0  0  0  0  0
    3.3523   -0.5396    0.0000 C   0  0  0  0  0  0  0  0  0  0  0  0
    3.3523   -1.3646    0.0000 C   0  0  0  0  0  0  0  0  0  0  0  0
    2.6378   -1.7771    0.0000 O   0  0  0  0  0  0  0  0  0  0  0  0
    1.9233   -1.3646    0.0000 C   0  0  0  0  0  0  0  0  0  0  0  0
    1.9233   -0.5396    0.0000 C   0  0  0  0  0  0  0  0  0  0  0  0
    1.9233    1.1104    0.0000 C   0  0  0  0  0  0  0  0  0  0  0  0
    1.1387    0.8555    0.0000 N   0  0  0  0  0  0  0  0  0  0  0  0
    0.6538    1.5229    0.0000 C   0  0  0  0  0  0  0  0  0  0  0  0
   -0.1712    1.5229    0.0000 C   0  0  0  0  0  0  0  0  0  0  0  0
   -0.5837    0.8085    0.0000 N   0  0  0  0  0  0  0  0  0  0  0  0
   -0.1712    0.0940    0.0000 C   0  0  0  0  0  0  0  0  0  0  0  0
   -1.4087    0.8085    0.0000 C   0  0  0  0  0  0  0  0  0  0  0  0
   -1.8212    0.0940    0.0000 N   0  0  0  0  0  0  0  0  0  0  0  0
   -2.6462    0.0940    0.0000 C   0  0  0  0  0  0  0  0  0  0  0  0
   -3.0587    0.8085    0.0000 C   0  0  0  0  0  0  0  0  0  0  0  0
   -3.8837    0.8085    0.0000 C   0  0  0  0  0  0  0  0  0  0  0  0
   -4.2962    0.0940    0.0000 O   0  0  0  0  0  0  0  0  0  0  0  0
   -4.2962    1.5229    0.0000 N   0  0  0  0  0  0  0  0  0  0  0  0
   -5.1212    1.5229    0.0000 O   0  0  0  0  0  0  0  0  0  0  0  0
   -2.6462    1.5229    0.0000 C   0  0  0  0  0  0  0  0  0  0  0  0
   -1.8212    1.5229    0.0000 N   0  0  0  0  0  0  0  0  0  0  0  0
    1.1387    2.1904    0.0000 N   0  0  0  0  0  0  0  0  0  0  0  0
    0.8838    2.9750    0.0000 C   0  0  0  0  0  0  0  0  0  0  0  0
    1.9233    1.9354    0.0000 C   0  0  0  0  0  0  0  0  0  0  0  0
    2.6378    2.3479    0.0000 N   0  0  0  0  0  0  0  0  0  0  0  0
    4.0668    3.1729    0.0000 C   0  0  0  0  0  0  0  0  0  0  0  0
    4.7812    3.5854    0.0000 C   0  0  0  0  0  0  0  0  0  0  0  0
  1  2  1  0  0  0  0
  2  3  1  0  0  0  0
  3  4  1  0  0  0  0
  4  5  4  0  0  0  0
  5  6  4  0  0  0  0
  6  7  4  0  0  0  0
  7  8  1  0  0  0  0
  8  9  4  0  0  0  0
  9 10  4  0  0  0  0
 10 11  1  0  0  0  0
 11 12  1  0  0  0  0
 12 13  1  0  0  0  0
 13 14  1  0  0  0  0
 14 15  1  0  0  0  0
 15 16  1  0  0  0  0
 11 16  1  0  0  0  0
 10 17  4  0  0  0  0
 17 18  4  0  0  0  0
 18 19  4  0  0  0  0
 19 20  1  0  0  0  0
 20 21  1  0  0  0  0
 21 22  1  0  0  0  0
 21 23  1  0  0  0  0
 23 24  4  0  0  0  0
 24 25  4  0  0  0  0
 25 26  4  0  0  0  0
 26 27  1  0  0  0  0
 27 28  2  0  0  0  0
 27 29  1  0  0  0  0
 29 30  1  0  0  0  0
 26 31  4  0  0  0  0
 31 32  4  0  0  0  0
 23 32  4  0  0  0  0
 19 33  4  0  0  0  0
 33 34  1  0  0  0  0
 33 35  4  0  0  0  0
 17 35  4  0  0  0  0
 35 36  4  0  0  0  0
  8 36  4  0  0  0  0
  7 37  4  0  0  0  0
 37 38  4  0  0  0  0
  4 38  4  0  0  0  0
M  END
>  <Molecule ChEMBL ID>
CHEMBL3826997

>  <Compound Key>
10q

>  <Document ChEMBL ID>
CHEMBL3826921

>  <HDAC1>
1

$$$$

  Mrv1808 03272221002D          

 30 33  0  0  0  0            999 V2000
   -0.1712   -2.1269    0.0000 C   0  0  0  0  0  0  0  0  0  0  0  0
   -0.5837   -1.4124    0.0000 N   0  0  0  0  0  0  0  0  0  0  0  0
   -0.1712   -0.6979    0.0000 C   0  0  0  0  0  0  0  0  0  0  0  0
    0.6538   -0.6979    0.0000 C   0  0  0  0  0  0  0  0  0  0  0  0
    1.1387   -0.0305    0.0000 N   0  0  0  0  0  0  0  0  0  0  0  0
    1.9233   -0.2854    0.0000 C   0  0  0  0  0  0  0  0  0  0  0  0
    2.6378    0.1271    0.0000 C   0  0  0  0  0  0  0  0  0  0  0  0
    2.6378    0.9521    0.0000 N   0  0  0  0  0  0  0  0  0  0  0  0
    1.9233    1.3646    0.0000 C   0  0  0  0  0  0  0  0  0  0  0  0
    1.9233    2.1896    0.0000 C   0  0  0  0  0  0  0  0  0  0  0  0
    2.6378    2.6021    0.0000 O   0  0  0  0  0  0  0  0  0  0  0  0
    3.3523    2.1896    0.0000 C   0  0  0  0  0  0  0  0  0  0  0  0
    3.3523    1.3646    0.0000 C   0  0  0  0  0  0  0  0  0  0  0  0
    3.3523   -0.2854    0.0000 N   0  0  0  0  0  0  0  0  0  0  0  0
    3.3523   -1.1104    0.0000 C   0  0  0  0  0  0  0  0  0  0  0  0
    4.0668   -1.5229    0.0000 Cl  0  0  0  0  0  0  0  0  0  0  0  0
    2.6378   -1.5229    0.0000 N   0  0  0  0  0  0  0  0  0  0  0  0
    1.9233   -1.1104    0.0000 C   0  0  0  0  0  0  0  0  0  0  0  0
    1.1387   -1.3654    0.0000 N   0  0  0  0  0  0  0  0  0  0  0  0
    0.8838   -2.1500    0.0000 C   0  0  0  0  0  0  0  0  0  0  0  0
   -1.4087   -1.4124    0.0000 C   0  0  0  0  0  0  0  0  0  0  0  0
   -1.8212   -2.1269    0.0000 N   0  0  0  0  0  0  0  0  0  0  0  0
   -2.6462   -2.1269    0.0000 C   0  0  0  0  0  0  0  0  0  0  0  0
   -3.0587   -1.4124    0.0000 C   0  0  0  0  0  0  0  0  0  0  0  0
   -3.8837   -1.4124    0.0000 C   0  0  0  0  0  0  0  0  0  0  0  0
   -4.2962   -2.1269    0.0000 O   0  0  0  0  0  0  0  0  0  0  0  0
   -4.2962   -0.6979    0.0000 N   0  0  0  0  0  0  0  0  0  0  0  0
   -5.1212   -0.6979    0.0000 O   0  0  0  0  0  0  0  0  0  0  0  0
   -2.6462   -0.6979    0.0000 C   0  0  0  0  0  0  0  0  0  0  0  0
   -1.8212   -0.6979    0.0000 N   0  0  0  0  0  0  0  0  0  0  0  0
  1  2  1  0  0  0  0
  2  3  1  0  0  0  0
  3  4  1  0  0  0  0
  4  5  4  0  0  0  0
  5  6  4  0  0  0  0
  6  7  4  0  0  0  0
  7  8  1  0  0  0  0
  8  9  1  0  0  0  0
  9 10  1  0  0  0  0
 10 11  1  0  0  0  0
 11 12  1  0  0  0  0
 12 13  1  0  0  0  0
  8 13  1  0  0  0  0
  7 14  4  0  0  0  0
 14 15  4  0  0  0  0
 15 16  1  0  0  0  0
 15 17  4  0  0  0  0
 17 18  4  0  0  0  0
  6 18  4  0  0  0  0
 18 19  4  0  0  0  0
  4 19  4  0  0  0  0
 19 20  1  0  0  0  0
  2 21  1  0  0  0  0
 21 22  4  0  0  0  0
 22 23  4  0  0  0  0
 23 24  4  0  0  0  0
 24 25  1  0  0  0  0
 25 26  2  0  0  0  0
 25 27  1  0  0  0  0
 27 28  1  0  0  0  0
 24 29  4  0  0  0  0
 29 30  4  0  0  0  0
 21 30  4  0  0  0  0
M  END
>  <Molecule ChEMBL ID>
CHEMBL3828747

>  <Compound Key>
10a

>  <Document ChEMBL ID>
CHEMBL3826921

>  <HDAC1>
1

$$$$

  Mrv1808 03272221002D          

 26 27  0  0  0  0            999 V2000
    6.4302   -3.7125    0.0000 O   0  0  0  0  0  0  0  0  0  0  0  0
    6.4302   -4.5375    0.0000 C   0  0  0  0  0  0  0  0  0  0  0  0
    5.7158   -4.9500    0.0000 C   0  0  0  0  0  0  0  0  0  0  0  0
    5.0013   -4.5375    0.0000 C   0  0  0  0  0  0  0  0  0  0  0  0
    4.2868   -4.9500    0.0000 C   0  0  0  0  0  0  0  0  0  0  0  0
    3.5724   -4.5375    0.0000 C   0  0  0  0  0  0  0  0  0  0  0  0
    2.8579   -4.9500    0.0000 C   0  0  0  0  0  0  0  0  0  0  0  0
    2.1434   -4.5375    0.0000 C   0  0  0  0  0  0  0  0  0  0  0  0
    2.1434   -3.7125    0.0000 O   0  0  0  0  0  0  0  0  0  0  0  0
    1.4289   -4.9500    0.0000 N   0  0  0  0  0  0  0  0  0  0  0  0
    0.7145   -4.5375    0.0000 N   0  0  0  0  0  0  0  0  0  0  0  0
    0.0000   -4.9500    0.0000 C   0  0  0  0  0  0  0  0  0  0  0  0
   -0.7145   -4.5375    0.0000 C   0  0  0  0  0  0  0  0  0  0  0  0
   -1.4289   -4.9500    0.0000 C   0  0  0  0  0  0  0  0  0  0  0  0
   -2.1434   -4.5375    0.0000 C   0  0  0  0  0  0  0  0  0  0  0  0
   -2.1434   -3.7125    0.0000 C   0  0  0  0  0  0  0  0  0  0  0  0
   -2.8579   -3.3000    0.0000 C   0  0  0  0  0  0  0  0  0  0  0  0
   -3.5724   -3.7125    0.0000 C   0  0  0  0  0  0  0  0  0  0  0  0
   -4.2868   -3.3000    0.0000 C   0  0  0  0  0  0  0  0  0  0  0  0
   -4.2868   -2.4750    0.0000 C   0  0  0  0  0  0  0  0  0  0  0  0
   -3.5724   -2.0625    0.0000 N   0  0  0  0  0  0  0  0  0  0  0  0
   -2.8579   -2.4750    0.0000 C   0  0  0  0  0  0  0  0  0  0  0  0
   -1.4289   -3.3000    0.0000 C   0  0  0  0  0  0  0  0  0  0  0  0
   -0.7145   -3.7125    0.0000 C   0  0  0  0  0  0  0  0  0  0  0  0
    7.1447   -4.9500    0.0000 N   0  0  0  0  0  0  0  0  0  0  0  0
    7.8592   -4.5375    0.0000 O   0  0  0  0  0  0  0  0  0  0  0  0
  1  2  2  0  0  0  0
  2  3  1  0  0  0  0
  3  4  1  0  0  0  0
  4  5  1  0  0  0  0
  5  6  1  0  0  0  0
  6  7  1  0  0  0  0
  7  8  1  0  0  0  0
  8  9  2  0  0  0  0
  8 10  1  0  0  0  0
 10 11  1  0  0  0  0
 11 12  2  0  0  0  0
 12 13  1  0  0  0  0
 13 14  4  0  0  0  0
 14 15  4  0  0  0  0
 15 16  4  0  0  0  0
 16 17  1  0  0  0  0
 17 18  4  0  0  0  0
 18 19  4  0  0  0  0
 19 20  4  0  0  0  0
 20 21  4  0  0  0  0
 21 22  4  0  0  0  0
 17 22  4  0  0  0  0
 16 23  4  0  0  0  0
 23 24  4  0  0  0  0
 13 24  4  0  0  0  0
  2 25  1  0  0  0  0
 25 26  1  0  0  0  0
M  END
>  <Molecule ChEMBL ID>
CHEMBL3759794

>  <Compound Key>
9f

>  <Document ChEMBL ID>
CHEMBL3758132

>  <HDAC1>
1

$$$$

  Mrv1808 03272221002D          

 35 39  0  0  0  0            999 V2000
   -0.1712   -2.1269    0.0000 C   0  0  0  0  0  0  0  0  0  0  0  0
   -0.5837   -1.4124    0.0000 N   0  0  0  0  0  0  0  0  0  0  0  0
   -0.1712   -0.6979    0.0000 C   0  0  0  0  0  0  0  0  0  0  0  0
    0.6538   -0.6979    0.0000 C   0  0  0  0  0  0  0  0  0  0  0  0
    1.1387   -0.0305    0.0000 N   0  0  0  0  0  0  0  0  0  0  0  0
    1.9233   -0.2854    0.0000 C   0  0  0  0  0  0  0  0  0  0  0  0
    2.6378    0.1271    0.0000 C   0  0  0  0  0  0  0  0  0  0  0  0
    2.6378    0.9521    0.0000 N   0  0  0  0  0  0  0  0  0  0  0  0
    1.9233    1.3646    0.0000 C   0  0  0  0  0  0  0  0  0  0  0  0
    1.9233    2.1896    0.0000 C   0  0  0  0  0  0  0  0  0  0  0  0
    2.6378    2.6021    0.0000 O   0  0  0  0  0  0  0  0  0  0  0  0
    3.3523    2.1896    0.0000 C   0  0  0  0  0  0  0  0  0  0  0  0
    3.3523    1.3646    0.0000 C   0  0  0  0  0  0  0  0  0  0  0  0
    3.3523   -0.2854    0.0000 N   0  0  0  0  0  0  0  0  0  0  0  0
    3.3523   -1.1104    0.0000 C   0  0  0  0  0  0  0  0  0  0  0  0
    4.0668   -1.5229    0.0000 C   0  0  0  0  0  0  0  0  0  0  0  0
    4.7812   -1.1104    0.0000 C   0  0  0  0  0  0  0  0  0  0  0  0
    5.4957   -1.5229    0.0000 N   0  0  0  0  0  0  0  0  0  0  0  0
    5.4957   -2.3479    0.0000 C   0  0  0  0  0  0  0  0  0  0  0  0
    4.7812   -2.7604    0.0000 N   0  0  0  0  0  0  0  0  0  0  0  0
    4.0668   -2.3479    0.0000 C   0  0  0  0  0  0  0  0  0  0  0  0
    2.6378   -1.5229    0.0000 N   0  0  0  0  0  0  0  0  0  0  0  0
    1.9233   -1.1104    0.0000 C   0  0  0  0  0  0  0  0  0  0  0  0
    1.1387   -1.3654    0.0000 N   0  0  0  0  0  0  0  0  0  0  0  0
    0.8838   -2.1500    0.0000 C   0  0  0  0  0  0  0  0  0  0  0  0
   -1.4087   -1.4124    0.0000 C   0  0  0  0  0  0  0  0  0  0  0  0
   -1.8212   -2.1269    0.0000 N   0  0  0  0  0  0  0  0  0  0  0  0
   -2.6462   -2.1269    0.0000 C   0  0  0  0  0  0  0  0  0  0  0  0
   -3.0587   -1.4124    0.0000 C   0  0  0  0  0  0  0  0  0  0  0  0
   -3.8837   -1.4124    0.0000 C   0  0  0  0  0  0  0  0  0  0  0  0
   -4.2962   -2.1269    0.0000 O   0  0  0  0  0  0  0  0  0  0  0  0
   -4.2962   -0.6979    0.0000 N   0  0  0  0  0  0  0  0  0  0  0  0
   -5.1212   -0.6979    0.0000 O   0  0  0  0  0  0  0  0  0  0  0  0
   -2.6462   -0.6979    0.0000 C   0  0  0  0  0  0  0  0  0  0  0  0
   -1.8212   -0.6979    0.0000 N   0  0  0  0  0  0  0  0  0  0  0  0
  1  2  1  0  0  0  0
  2  3  1  0  0  0  0
  3  4  1  0  0  0  0
  4  5  4  0  0  0  0
  5  6  4  0  0  0  0
  6  7  4  0  0  0  0
  7  8  1  0  0  0  0
  8  9  1  0  0  0  0
  9 10  1  0  0  0  0
 10 11  1  0  0  0  0
 11 12  1  0  0  0  0
 12 13  1  0  0  0  0
  8 13  1  0  0  0  0
  7 14  4  0  0  0  0
 14 15  4  0  0  0  0
 15 16  1  0  0  0  0
 16 17  4  0  0  0  0
 17 18  4  0  0  0  0
 18 19  4  0  0  0  0
 19 20  4  0  0  0  0
 20 21  4  0  0  0  0
 16 21  4  0  0  0  0
 15 22  4  0  0  0  0
 22 23  4  0  0  0  0
  6 23  4  0  0  0  0
 23 24  4  0  0  0  0
  4 24  4  0  0  0  0
 24 25  1  0  0  0  0
  2 26  1  0  0  0  0
 26 27  4  0  0  0  0
 27 28  4  0  0  0  0
 28 29  4  0  0  0  0
 29 30  1  0  0  0  0
 30 31  2  0  0  0  0
 30 32  1  0  0  0  0
 32 33  1  0  0  0  0
 29 34  4  0  0  0  0
 34 35  4  0  0  0  0
 26 35  4  0  0  0  0
M  END
>  <Molecule ChEMBL ID>
CHEMBL3827004

>  <Compound Key>
10t

>  <Document ChEMBL ID>
CHEMBL3826921

>  <HDAC1>
1

$$$$

  Mrv1808 03272221002D          

 37 41  0  0  0  0            999 V2000
    1.4358   -2.7631    0.0000 C   0  0  0  0  0  0  0  0  0  0  0  0
    0.8838   -2.1500    0.0000 C   0  0  0  0  0  0  0  0  0  0  0  0
    1.1387   -1.3654    0.0000 N   0  0  0  0  0  0  0  0  0  0  0  0
    0.6538   -0.6979    0.0000 C   0  0  0  0  0  0  0  0  0  0  0  0
   -0.1712   -0.6979    0.0000 C   0  0  0  0  0  0  0  0  0  0  0  0
   -0.5837    0.0165    0.0000 N   0  0  0  0  0  0  0  0  0  0  0  0
   -0.1712    0.7310    0.0000 C   0  0  0  0  0  0  0  0  0  0  0  0
   -1.4087    0.0165    0.0000 C   0  0  0  0  0  0  0  0  0  0  0  0
   -1.8212   -0.6979    0.0000 N   0  0  0  0  0  0  0  0  0  0  0  0
   -2.6462   -0.6979    0.0000 C   0  0  0  0  0  0  0  0  0  0  0  0
   -3.0587    0.0165    0.0000 C   0  0  0  0  0  0  0  0  0  0  0  0
   -3.8837    0.0165    0.0000 C   0  0  0  0  0  0  0  0  0  0  0  0
   -4.2962   -0.6979    0.0000 O   0  0  0  0  0  0  0  0  0  0  0  0
   -4.2962    0.7310    0.0000 N   0  0  0  0  0  0  0  0  0  0  0  0
   -5.1212    0.7310    0.0000 O   0  0  0  0  0  0  0  0  0  0  0  0
   -2.6462    0.7310    0.0000 C   0  0  0  0  0  0  0  0  0  0  0  0
   -1.8212    0.7310    0.0000 N   0  0  0  0  0  0  0  0  0  0  0  0
    1.1387   -0.0305    0.0000 N   0  0  0  0  0  0  0  0  0  0  0  0
    1.9233   -0.2854    0.0000 C   0  0  0  0  0  0  0  0  0  0  0  0
    2.6378    0.1271    0.0000 C   0  0  0  0  0  0  0  0  0  0  0  0
    2.6378    0.9521    0.0000 N   0  0  0  0  0  0  0  0  0  0  0  0
    1.9233    1.3646    0.0000 C   0  0  0  0  0  0  0  0  0  0  0  0
    1.9233    2.1896    0.0000 C   0  0  0  0  0  0  0  0  0  0  0  0
    2.6378    2.6021    0.0000 O   0  0  0  0  0  0  0  0  0  0  0  0
    3.3523    2.1896    0.0000 C   0  0  0  0  0  0  0  0  0  0  0  0
    3.3523    1.3646    0.0000 C   0  0  0  0  0  0  0  0  0  0  0  0
    3.3523   -0.2854    0.0000 N   0  0  0  0  0  0  0  0  0  0  0  0
    3.3523   -1.1104    0.0000 C   0  0  0  0  0  0  0  0  0  0  0  0
    4.0668   -1.5229    0.0000 C   0  0  0  0  0  0  0  0  0  0  0  0
    4.7812   -1.1104    0.0000 C   0  0  0  0  0  0  0  0  0  0  0  0
    5.4957   -1.5229    0.0000 C   0  0  0  0  0  0  0  0  0  0  0  0
    5.4957   -2.3479    0.0000 C   0  0  0  0  0  0  0  0  0  0  0  0
    6.2102   -2.7604    0.0000 N   0  0  0  0  0  0  0  0  0  0  0  0
    4.7812   -2.7604    0.0000 C   0  0  0  0  0  0  0  0  0  0  0  0
    4.0668   -2.3479    0.0000 C   0  0  0  0  0  0  0  0  0  0  0  0
    2.6378   -1.5229    0.0000 N   0  0  0  0  0  0  0  0  0  0  0  0
    1.9233   -1.1104    0.0000 C   0  0  0  0  0  0  0  0  0  0  0  0
  1  2  1  0  0  0  0
  2  3  1  0  0  0  0
  3  4  4  0  0  0  0
  4  5  1  0  0  0  0
  5  6  1  0  0  0  0
  6  7  1  0  0  0  0
  6  8  1  0  0  0  0
  8  9  4  0  0  0  0
  9 10  4  0  0  0  0
 10 11  4  0  0  0  0
 11 12  1  0  0  0  0
 12 13  2  0  0  0  0
 12 14  1  0  0  0  0
 14 15  1  0  0  0  0
 11 16  4  0  0  0  0
 16 17  4  0  0  0  0
  8 17  4  0  0  0  0
  4 18  4  0  0  0  0
 18 19  4  0  0  0  0
 19 20  4  0  0  0  0
 20 21  1  0  0  0  0
 21 22  1  0  0  0  0
 22 23  1  0  0  0  0
 23 24  1  0  0  0  0
 24 25  1  0  0  0  0
 25 26  1  0  0  0  0
 21 26  1  0  0  0  0
 20 27  4  0  0  0  0
 27 28  4  0  0  0  0
 28 29  1  0  0  0  0
 29 30  4  0  0  0  0
 30 31  4  0  0  0  0
 31 32  4  0  0  0  0
 32 33  1  0  0  0  0
 32 34  4  0  0  0  0
 34 35  4  0  0  0  0
 29 35  4  0  0  0  0
 28 36  4  0  0  0  0
 36 37  4  0  0  0  0
 19 37  4  0  0  0  0
  3 37  4  0  0  0  0
M  END
>  <Molecule ChEMBL ID>
CHEMBL3827612

>  <Compound Key>
18d

>  <Document ChEMBL ID>
CHEMBL3826921

>  <HDAC1>
1

$$$$

  Mrv1808 03272221002D          

 33 36  0  0  0  0            999 V2000
    7.6590   -2.1582    0.0000 O   0  0  0  0  0  0  0  0  0  0  0  0
    7.6590   -2.9832    0.0000 C   0  0  0  0  0  0  0  0  0  0  0  0
    6.9445   -3.3957    0.0000 C   0  0  0  0  0  0  0  0  0  0  0  0
    6.2301   -2.9832    0.0000 C   0  0  0  0  0  0  0  0  0  0  0  0
    5.5156   -3.3957    0.0000 C   0  0  0  0  0  0  0  0  0  0  0  0
    4.8011   -2.9832    0.0000 C   0  0  0  0  0  0  0  0  0  0  0  0
    4.0866   -3.3957    0.0000 C   0  0  0  0  0  0  0  0  0  0  0  0
    3.3722   -2.9832    0.0000 N   0  0  0  0  0  0  0  0  0  0  0  0
    2.6185   -3.3187    0.0000 C   0  0  0  0  0  0  0  0  0  0  0  0
    2.0665   -2.7056    0.0000 C   0  0  0  0  0  0  0  0  0  0  0  0
    1.2460   -2.7919    0.0000 C   0  0  0  0  0  0  0  0  0  0  0  0
    0.9104   -3.5456    0.0000 C   0  0  0  0  0  0  0  0  0  0  0  0
    0.0900   -3.6318    0.0000 C   0  0  0  0  0  0  0  0  0  0  0  0
   -0.3950   -2.9644    0.0000 C   0  0  0  0  0  0  0  0  0  0  0  0
   -1.2155   -3.0506    0.0000 N   0  0  0  0  0  0  0  0  0  0  0  0
   -1.7004   -2.3832    0.0000 C   0  0  0  0  0  0  0  0  0  0  0  0
   -1.3648   -1.6295    0.0000 N   0  0  0  0  0  0  0  0  0  0  0  0
   -0.5443   -1.5432    0.0000 C   0  0  0  0  0  0  0  0  0  0  0  0
   -0.2088   -0.7896    0.0000 N   0  0  0  0  0  0  0  0  0  0  0  0
   -0.6937   -0.1221    0.0000 C   0  0  0  0  0  0  0  0  0  0  0  0
   -1.5142   -0.2084    0.0000 C   0  0  0  0  0  0  0  0  0  0  0  0
   -1.9991    0.4591    0.0000 C   0  0  0  0  0  0  0  0  0  0  0  0
   -1.6635    1.2128    0.0000 C   0  0  0  0  0  0  0  0  0  0  0  0
   -0.8431    1.2990    0.0000 C   0  0  0  0  0  0  0  0  0  0  0  0
   -0.5075    2.0527    0.0000 Cl  0  0  0  0  0  0  0  0  0  0  0  0
   -0.3581    0.6315    0.0000 C   0  0  0  0  0  0  0  0  0  0  0  0
    0.4623    0.7178    0.0000 F   0  0  0  0  0  0  0  0  0  0  0  0
   -0.0594   -2.2107    0.0000 C   0  0  0  0  0  0  0  0  0  0  0  0
    0.7611   -2.1244    0.0000 C   0  0  0  0  0  0  0  0  0  0  0  0
    2.4790   -1.9912    0.0000 N   0  0  0  0  0  0  0  0  0  0  0  0
    3.2859   -2.1627    0.0000 N   0  0  0  0  0  0  0  0  0  0  0  0
    8.3735   -3.3957    0.0000 N   0  0  0  0  0  0  0  0  0  0  0  0
    9.0879   -2.9832    0.0000 O   0  0  0  0  0  0  0  0  0  0  0  0
  1  2  2  0  0  0  0
  2  3  1  0  0  0  0
  3  4  1  0  0  0  0
  4  5  1  0  0  0  0
  5  6  1  0  0  0  0
  6  7  1  0  0  0  0
  7  8  1  0  0  0  0
  8  9  4  0  0  0  0
  9 10  4  0  0  0  0
 10 11  1  0  0  0  0
 11 12  4  0  0  0  0
 12 13  4  0  0  0  0
 13 14  4  0  0  0  0
 14 15  4  0  0  0  0
 15 16  4  0  0  0  0
 16 17  4  0  0  0  0
 17 18  4  0  0  0  0
 18 19  1  0  0  0  0
 19 20  1  0  0  0  0
 20 21  4  0  0  0  0
 21 22  4  0  0  0  0
 22 23  4  0  0  0  0
 23 24  4  0  0  0  0
 24 25  1  0  0  0  0
 24 26  4  0  0  0  0
 20 26  4  0  0  0  0
 26 27  1  0  0  0  0
 18 28  4  0  0  0  0
 14 28  4  0  0  0  0
 28 29  4  0  0  0  0
 11 29  4  0  0  0  0
 10 30  4  0  0  0  0
 30 31  4  0  0  0  0
  8 31  4  0  0  0  0
  2 32  1  0  0  0  0
 32 33  1  0  0  0  0
M  END
>  <Molecule ChEMBL ID>
CHEMBL3929484

>  <Compound Key>
9c

>  <Document ChEMBL ID>
CHEMBL3870325

>  <HDAC1>
1

$$$$

  Mrv1808 03272221002D          

 26 27  0  0  0  0            999 V2000
    6.4302   -3.7125    0.0000 O   0  0  0  0  0  0  0  0  0  0  0  0
    6.4302   -4.5375    0.0000 C   0  0  0  0  0  0  0  0  0  0  0  0
    5.7158   -4.9500    0.0000 C   0  0  0  0  0  0  0  0  0  0  0  0
    5.0013   -4.5375    0.0000 C   0  0  0  0  0  0  0  0  0  0  0  0
    4.2868   -4.9500    0.0000 C   0  0  0  0  0  0  0  0  0  0  0  0
    3.5724   -4.5375    0.0000 C   0  0  0  0  0  0  0  0  0  0  0  0
    2.8579   -4.9500    0.0000 C   0  0  0  0  0  0  0  0  0  0  0  0
    2.1434   -4.5375    0.0000 C   0  0  0  0  0  0  0  0  0  0  0  0
    2.1434   -3.7125    0.0000 O   0  0  0  0  0  0  0  0  0  0  0  0
    1.4289   -4.9500    0.0000 N   0  0  0  0  0  0  0  0  0  0  0  0
    0.7145   -4.5375    0.0000 N   0  0  0  0  0  0  0  0  0  0  0  0
    0.0000   -4.9500    0.0000 C   0  0  0  0  0  0  0  0  0  0  0  0
   -0.7145   -4.5375    0.0000 C   0  0  0  0  0  0  0  0  0  0  0  0
   -1.4289   -4.9500    0.0000 C   0  0  0  0  0  0  0  0  0  0  0  0
   -2.1434   -4.5375    0.0000 C   0  0  0  0  0  0  0  0  0  0  0  0
   -2.1434   -3.7125    0.0000 C   0  0  0  0  0  0  0  0  0  0  0  0
   -2.8579   -3.3000    0.0000 C   0  0  0  0  0  0  0  0  0  0  0  0
   -3.5724   -3.7125    0.0000 C   0  0  0  0  0  0  0  0  0  0  0  0
   -4.2868   -3.3000    0.0000 C   0  0  0  0  0  0  0  0  0  0  0  0
   -4.2868   -2.4750    0.0000 C   0  0  0  0  0  0  0  0  0  0  0  0
   -3.5724   -2.0625    0.0000 C   0  0  0  0  0  0  0  0  0  0  0  0
   -2.8579   -2.4750    0.0000 C   0  0  0  0  0  0  0  0  0  0  0  0
   -1.4289   -3.3000    0.0000 C   0  0  0  0  0  0  0  0  0  0  0  0
   -0.7145   -3.7125    0.0000 C   0  0  0  0  0  0  0  0  0  0  0  0
    7.1447   -4.9500    0.0000 N   0  0  0  0  0  0  0  0  0  0  0  0
    7.8592   -4.5375    0.0000 O   0  0  0  0  0  0  0  0  0  0  0  0
  1  2  2  0  0  0  0
  2  3  1  0  0  0  0
  3  4  1  0  0  0  0
  4  5  1  0  0  0  0
  5  6  1  0  0  0  0
  6  7  1  0  0  0  0
  7  8  1  0  0  0  0
  8  9  2  0  0  0  0
  8 10  1  0  0  0  0
 10 11  1  0  0  0  0
 11 12  2  0  0  0  0
 12 13  1  0  0  0  0
 13 14  4  0  0  0  0
 14 15  4  0  0  0  0
 15 16  4  0  0  0  0
 16 17  1  0  0  0  0
 17 18  4  0  0  0  0
 18 19  4  0  0  0  0
 19 20  4  0  0  0  0
 20 21  4  0  0  0  0
 21 22  4  0  0  0  0
 17 22  4  0  0  0  0
 16 23  4  0  0  0  0
 23 24  4  0  0  0  0
 13 24  4  0  0  0  0
  2 25  1  0  0  0  0
 25 26  1  0  0  0  0
M  END
>  <Molecule ChEMBL ID>
CHEMBL3759982

>  <Compound Key>
9b

>  <Document ChEMBL ID>
CHEMBL3758132

>  <HDAC1>
1

$$$$

  Mrv1808 03272221002D          

 38 42  0  0  0  0            999 V2000
    1.4358   -2.7631    0.0000 C   0  0  0  0  0  0  0  0  0  0  0  0
    0.8838   -2.1500    0.0000 C   0  0  0  0  0  0  0  0  0  0  0  0
    1.1387   -1.3654    0.0000 N   0  0  0  0  0  0  0  0  0  0  0  0
    0.6538   -0.6979    0.0000 C   0  0  0  0  0  0  0  0  0  0  0  0
   -0.1712   -0.6979    0.0000 C   0  0  0  0  0  0  0  0  0  0  0  0
   -0.5837    0.0165    0.0000 N   0  0  0  0  0  0  0  0  0  0  0  0
   -0.1712    0.7310    0.0000 C   0  0  0  0  0  0  0  0  0  0  0  0
   -1.4087    0.0165    0.0000 C   0  0  0  0  0  0  0  0  0  0  0  0
   -1.8212   -0.6979    0.0000 N   0  0  0  0  0  0  0  0  0  0  0  0
   -2.6462   -0.6979    0.0000 C   0  0  0  0  0  0  0  0  0  0  0  0
   -3.0587    0.0165    0.0000 C   0  0  0  0  0  0  0  0  0  0  0  0
   -3.8837    0.0165    0.0000 C   0  0  0  0  0  0  0  0  0  0  0  0
   -4.2962   -0.6979    0.0000 O   0  0  0  0  0  0  0  0  0  0  0  0
   -4.2962    0.7310    0.0000 N   0  0  0  0  0  0  0  0  0  0  0  0
   -5.1212    0.7310    0.0000 O   0  0  0  0  0  0  0  0  0  0  0  0
   -2.6462    0.7310    0.0000 C   0  0  0  0  0  0  0  0  0  0  0  0
   -1.8212    0.7310    0.0000 N   0  0  0  0  0  0  0  0  0  0  0  0
    1.1387   -0.0305    0.0000 N   0  0  0  0  0  0  0  0  0  0  0  0
    1.9233   -0.2854    0.0000 C   0  0  0  0  0  0  0  0  0  0  0  0
    2.6378    0.1271    0.0000 C   0  0  0  0  0  0  0  0  0  0  0  0
    2.6378    0.9521    0.0000 N   0  0  0  0  0  0  0  0  0  0  0  0
    1.9233    1.3646    0.0000 C   0  0  0  0  0  0  0  0  0  0  0  0
    1.9233    2.1896    0.0000 C   0  0  0  0  0  0  0  0  0  0  0  0
    2.6378    2.6021    0.0000 O   0  0  0  0  0  0  0  0  0  0  0  0
    3.3523    2.1896    0.0000 C   0  0  0  0  0  0  0  0  0  0  0  0
    3.3523    1.3646    0.0000 C   0  0  0  0  0  0  0  0  0  0  0  0
    3.3523   -0.2854    0.0000 N   0  0  0  0  0  0  0  0  0  0  0  0
    3.3523   -1.1104    0.0000 C   0  0  0  0  0  0  0  0  0  0  0  0
    4.0668   -1.5229    0.0000 C   0  0  0  0  0  0  0  0  0  0  0  0
    4.7812   -1.1104    0.0000 C   0  0  0  0  0  0  0  0  0  0  0  0
    5.4957   -1.5229    0.0000 C   0  0  0  0  0  0  0  0  0  0  0  0
    5.4957   -2.3479    0.0000 C   0  0  0  0  0  0  0  0  0  0  0  0
    6.2102   -2.7604    0.0000 O   0  0  0  0  0  0  0  0  0  0  0  0
    6.9246   -2.3479    0.0000 C   0  0  0  0  0  0  0  0  0  0  0  0
    4.7812   -2.7604    0.0000 N   0  0  0  0  0  0  0  0  0  0  0  0
    4.0668   -2.3479    0.0000 C   0  0  0  0  0  0  0  0  0  0  0  0
    2.6378   -1.5229    0.0000 N   0  0  0  0  0  0  0  0  0  0  0  0
    1.9233   -1.1104    0.0000 C   0  0  0  0  0  0  0  0  0  0  0  0
  1  2  1  0  0  0  0
  2  3  1  0  0  0  0
  3  4  4  0  0  0  0
  4  5  1  0  0  0  0
  5  6  1  0  0  0  0
  6  7  1  0  0  0  0
  6  8  1  0  0  0  0
  8  9  4  0  0  0  0
  9 10  4  0  0  0  0
 10 11  4  0  0  0  0
 11 12  1  0  0  0  0
 12 13  2  0  0  0  0
 12 14  1  0  0  0  0
 14 15  1  0  0  0  0
 11 16  4  0  0  0  0
 16 17  4  0  0  0  0
  8 17  4  0  0  0  0
  4 18  4  0  0  0  0
 18 19  4  0  0  0  0
 19 20  4  0  0  0  0
 20 21  1  0  0  0  0
 21 22  1  0  0  0  0
 22 23  1  0  0  0  0
 23 24  1  0  0  0  0
 24 25  1  0  0  0  0
 25 26  1  0  0  0  0
 21 26  1  0  0  0  0
 20 27  4  0  0  0  0
 27 28  4  0  0  0  0
 28 29  1  0  0  0  0
 29 30  4  0  0  0  0
 30 31  4  0  0  0  0
 31 32  4  0  0  0  0
 32 33  1  0  0  0  0
 33 34  1  0  0  0  0
 32 35  4  0  0  0  0
 35 36  4  0  0  0  0
 29 36  4  0  0  0  0
 28 37  4  0  0  0  0
 37 38  4  0  0  0  0
 19 38  4  0  0  0  0
  3 38  4  0  0  0  0
M  END
>  <Molecule ChEMBL ID>
CHEMBL3827317

>  <Compound Key>
18j

>  <Document ChEMBL ID>
CHEMBL3826921

>  <HDAC1>
1

$$$$

  Mrv1808 03272221002D          

 39 44  0  0  0  0            999 V2000
    3.3278   -3.4914    0.0000 C   0  0  0  0  0  0  0  0  0  0  0  0
    2.9153   -2.7770    0.0000 N   0  0  0  0  0  0  0  0  0  0  0  0
    3.3278   -2.0625    0.0000 C   0  0  0  0  0  0  0  0  0  0  0  0
    4.1528   -2.0625    0.0000 C   0  0  0  0  0  0  0  0  0  0  0  0
    4.6377   -1.3951    0.0000 N   0  0  0  0  0  0  0  0  0  0  0  0
    5.4223   -1.6500    0.0000 C   0  0  0  0  0  0  0  0  0  0  0  0
    6.1368   -1.2375    0.0000 C   0  0  0  0  0  0  0  0  0  0  0  0
    6.1368   -0.4125    0.0000 N   0  0  0  0  0  0  0  0  0  0  0  0
    5.4223    0.0000    0.0000 C   0  0  0  0  0  0  0  0  0  0  0  0
    5.4223    0.8250    0.0000 C   0  0  0  0  0  0  0  0  0  0  0  0
    6.1368    1.2375    0.0000 O   0  0  0  0  0  0  0  0  0  0  0  0
    6.8513    0.8250    0.0000 C   0  0  0  0  0  0  0  0  0  0  0  0
    6.8513    0.0000    0.0000 C   0  0  0  0  0  0  0  0  0  0  0  0
    6.8513   -1.6500    0.0000 N   0  0  0  0  0  0  0  0  0  0  0  0
    6.8513   -2.4750    0.0000 C   0  0  0  0  0  0  0  0  0  0  0  0
    7.5658   -2.8875    0.0000 C   0  0  0  0  0  0  0  0  0  0  0  0
    8.2802   -2.4750    0.0000 C   0  0  0  0  0  0  0  0  0  0  0  0
    8.9947   -2.8875    0.0000 N   0  0  0  0  0  0  0  0  0  0  0  0
    8.9947   -3.7125    0.0000 C   0  0  0  0  0  0  0  0  0  0  0  0
    9.7092   -4.1250    0.0000 C   0  0  0  0  0  0  0  0  0  0  0  0
    9.7092   -4.9500    0.0000 C   0  0  0  0  0  0  0  0  0  0  0  0
    8.9947   -5.3625    0.0000 C   0  0  0  0  0  0  0  0  0  0  0  0
    8.2802   -4.9500    0.0000 C   0  0  0  0  0  0  0  0  0  0  0  0
    8.2802   -4.1250    0.0000 C   0  0  0  0  0  0  0  0  0  0  0  0
    7.5658   -3.7125    0.0000 C   0  0  0  0  0  0  0  0  0  0  0  0
    6.1368   -2.8875    0.0000 N   0  0  0  0  0  0  0  0  0  0  0  0
    5.4223   -2.4750    0.0000 C   0  0  0  0  0  0  0  0  0  0  0  0
    4.6377   -2.7299    0.0000 N   0  0  0  0  0  0  0  0  0  0  0  0
    4.3828   -3.5146    0.0000 C   0  0  0  0  0  0  0  0  0  0  0  0
    2.0903   -2.7770    0.0000 C   0  0  0  0  0  0  0  0  0  0  0  0
    1.6778   -3.4914    0.0000 N   0  0  0  0  0  0  0  0  0  0  0  0
    0.8528   -3.4914    0.0000 C   0  0  0  0  0  0  0  0  0  0  0  0
    0.4403   -2.7770    0.0000 C   0  0  0  0  0  0  0  0  0  0  0  0
   -0.3847   -2.7770    0.0000 C   0  0  0  0  0  0  0  0  0  0  0  0
   -0.7972   -3.4914    0.0000 O   0  0  0  0  0  0  0  0  0  0  0  0
   -0.7972   -2.0625    0.0000 N   0  0  0  0  0  0  0  0  0  0  0  0
   -1.6222   -2.0625    0.0000 O   0  0  0  0  0  0  0  0  0  0  0  0
    0.8528   -2.0625    0.0000 C   0  0  0  0  0  0  0  0  0  0  0  0
    1.6778   -2.0625    0.0000 N   0  0  0  0  0  0  0  0  0  0  0  0
  1  2  1  0  0  0  0
  2  3  1  0  0  0  0
  3  4  1  0  0  0  0
  4  5  4  0  0  0  0
  5  6  4  0  0  0  0
  6  7  4  0  0  0  0
  7  8  1  0  0  0  0
  8  9  1  0  0  0  0
  9 10  1  0  0  0  0
 10 11  1  0  0  0  0
 11 12  1  0  0  0  0
 12 13  1  0  0  0  0
  8 13  1  0  0  0  0
  7 14  4  0  0  0  0
 14 15  4  0  0  0  0
 15 16  1  0  0  0  0
 16 17  4  0  0  0  0
 17 18  4  0  0  0  0
 18 19  4  0  0  0  0
 19 20  4  0  0  0  0
 20 21  4  0  0  0  0
 21 22  4  0  0  0  0
 22 23  4  0  0  0  0
 23 24  4  0  0  0  0
 19 24  4  0  0  0  0
 24 25  4  0  0  0  0
 16 25  4  0  0  0  0
 15 26  4  0  0  0  0
 26 27  4  0  0  0  0
  6 27  4  0  0  0  0
 27 28  4  0  0  0  0
  4 28  4  0  0  0  0
 28 29  1  0  0  0  0
  2 30  1  0  0  0  0
 30 31  4  0  0  0  0
 31 32  4  0  0  0  0
 32 33  4  0  0  0  0
 33 34  1  0  0  0  0
 34 35  2  0  0  0  0
 34 36  1  0  0  0  0
 36 37  1  0  0  0  0
 33 38  4  0  0  0  0
 38 39  4  0  0  0  0
 30 39  4  0  0  0  0
M  END
>  <Molecule ChEMBL ID>
CHEMBL3828628

>  <Compound Key>
10v

>  <Document ChEMBL ID>
CHEMBL3826921

>  <HDAC1>
1

$$$$

  Mrv1808 03272221002D          

 36 40  0  0  0  0            999 V2000
    6.2102    4.4104    0.0000 C   0  0  0  0  0  0  0  0  0  0  0  0
    6.2102    3.5854    0.0000 O   0  0  0  0  0  0  0  0  0  0  0  0
    5.4957    3.1729    0.0000 C   0  0  0  0  0  0  0  0  0  0  0  0
    5.4957    2.3479    0.0000 C   0  0  0  0  0  0  0  0  0  0  0  0
    4.7812    1.9354    0.0000 C   0  0  0  0  0  0  0  0  0  0  0  0
    4.0668    2.3479    0.0000 C   0  0  0  0  0  0  0  0  0  0  0  0
    3.3523    1.9354    0.0000 C   0  0  0  0  0  0  0  0  0  0  0  0
    3.3523    1.1104    0.0000 N   0  0  0  0  0  0  0  0  0  0  0  0
    2.6378    0.6979    0.0000 C   0  0  0  0  0  0  0  0  0  0  0  0
    2.6378   -0.1271    0.0000 N   0  0  0  0  0  0  0  0  0  0  0  0
    3.3523   -0.5396    0.0000 C   0  0  0  0  0  0  0  0  0  0  0  0
    3.3523   -1.3646    0.0000 C   0  0  0  0  0  0  0  0  0  0  0  0
    2.6378   -1.7771    0.0000 O   0  0  0  0  0  0  0  0  0  0  0  0
    1.9233   -1.3646    0.0000 C   0  0  0  0  0  0  0  0  0  0  0  0
    1.9233   -0.5396    0.0000 C   0  0  0  0  0  0  0  0  0  0  0  0
    1.9233    1.1104    0.0000 C   0  0  0  0  0  0  0  0  0  0  0  0
    1.1387    0.8555    0.0000 S   0  0  0  0  0  0  0  0  0  0  0  0
    0.6538    1.5229    0.0000 C   0  0  0  0  0  0  0  0  0  0  0  0
   -0.1712    1.5229    0.0000 C   0  0  0  0  0  0  0  0  0  0  0  0
   -0.5837    0.8085    0.0000 N   0  0  0  0  0  0  0  0  0  0  0  0
   -0.1712    0.0940    0.0000 C   0  0  0  0  0  0  0  0  0  0  0  0
   -1.4087    0.8085    0.0000 C   0  0  0  0  0  0  0  0  0  0  0  0
   -1.8212    0.0940    0.0000 N   0  0  0  0  0  0  0  0  0  0  0  0
   -2.6462    0.0940    0.0000 C   0  0  0  0  0  0  0  0  0  0  0  0
   -3.0587    0.8085    0.0000 C   0  0  0  0  0  0  0  0  0  0  0  0
   -3.8837    0.8085    0.0000 C   0  0  0  0  0  0  0  0  0  0  0  0
   -4.2962    0.0940    0.0000 O   0  0  0  0  0  0  0  0  0  0  0  0
   -4.2962    1.5229    0.0000 N   0  0  0  0  0  0  0  0  0  0  0  0
   -5.1212    1.5229    0.0000 O   0  0  0  0  0  0  0  0  0  0  0  0
   -2.6462    1.5229    0.0000 C   0  0  0  0  0  0  0  0  0  0  0  0
   -1.8212    1.5229    0.0000 N   0  0  0  0  0  0  0  0  0  0  0  0
    1.1387    2.1904    0.0000 C   0  0  0  0  0  0  0  0  0  0  0  0
    1.9233    1.9354    0.0000 C   0  0  0  0  0  0  0  0  0  0  0  0
    2.6378    2.3479    0.0000 N   0  0  0  0  0  0  0  0  0  0  0  0
    4.0668    3.1729    0.0000 C   0  0  0  0  0  0  0  0  0  0  0  0
    4.7812    3.5854    0.0000 N   0  0  0  0  0  0  0  0  0  0  0  0
  1  2  1  0  0  0  0
  2  3  1  0  0  0  0
  3  4  4  0  0  0  0
  4  5  4  0  0  0  0
  5  6  4  0  0  0  0
  6  7  1  0  0  0  0
  7  8  4  0  0  0  0
  8  9  4  0  0  0  0
  9 10  1  0  0  0  0
 10 11  1  0  0  0  0
 11 12  1  0  0  0  0
 12 13  1  0  0  0  0
 13 14  1  0  0  0  0
 14 15  1  0  0  0  0
 10 15  1  0  0  0  0
  9 16  4  0  0  0  0
 16 17  4  0  0  0  0
 17 18  4  0  0  0  0
 18 19  1  0  0  0  0
 19 20  1  0  0  0  0
 20 21  1  0  0  0  0
 20 22  1  0  0  0  0
 22 23  4  0  0  0  0
 23 24  4  0  0  0  0
 24 25  4  0  0  0  0
 25 26  1  0  0  0  0
 26 27  2  0  0  0  0
 26 28  1  0  0  0  0
 28 29  1  0  0  0  0
 25 30  4  0  0  0  0
 30 31  4  0  0  0  0
 22 31  4  0  0  0  0
 18 32  4  0  0  0  0
 32 33  4  0  0  0  0
 16 33  4  0  0  0  0
 33 34  4  0  0  0  0
  7 34  4  0  0  0  0
  6 35  4  0  0  0  0
 35 36  4  0  0  0  0
  3 36  4  0  0  0  0
M  END
>  <Molecule ChEMBL ID>
CHEMBL3622533

>  <Compound Key>
CUDC-907

>  <Document ChEMBL ID>
CHEMBL3826921

>  <HDAC1>
1

$$$$

  Mrv1808 03272221002D          

 29 31  0  0  0  0            999 V2000
    8.4023    0.2439    0.0000 O   0  0  0  0  0  0  0  0  0  0  0  0
    8.4023   -0.5811    0.0000 C   0  0  0  0  0  0  0  0  0  0  0  0
    7.6879   -0.9936    0.0000 C   0  0  0  0  0  0  0  0  0  0  0  0
    6.9734   -0.5811    0.0000 C   0  0  0  0  0  0  0  0  0  0  0  0
    6.2589   -0.9936    0.0000 C   0  0  0  0  0  0  0  0  0  0  0  0
    5.5445   -0.5811    0.0000 C   0  0  0  0  0  0  0  0  0  0  0  0
    4.8300   -0.9936    0.0000 C   0  0  0  0  0  0  0  0  0  0  0  0
    4.1155   -0.5811    0.0000 C   0  0  0  0  0  0  0  0  0  0  0  0
    3.4010   -0.9936    0.0000 C   0  0  0  0  0  0  0  0  0  0  0  0
    3.4010   -1.8186    0.0000 O   0  0  0  0  0  0  0  0  0  0  0  0
    2.6866   -0.5811    0.0000 N   0  0  0  0  0  0  0  0  0  0  0  0
    1.9721   -0.9936    0.0000 C   0  0  0  0  0  0  0  0  0  0  0  0
    1.8859   -1.8141    0.0000 N   0  0  0  0  0  0  0  0  0  0  0  0
    1.0789   -1.9856    0.0000 N   0  0  0  0  0  0  0  0  0  0  0  0
    0.6664   -1.2711    0.0000 C   0  0  0  0  0  0  0  0  0  0  0  0
   -0.1406   -1.0996    0.0000 C   0  0  0  0  0  0  0  0  0  0  0  0
   -0.3955   -0.3150    0.0000 C   0  0  0  0  0  0  0  0  0  0  0  0
   -1.2025   -0.1435    0.0000 C   0  0  0  0  0  0  0  0  0  0  0  0
   -1.7545   -0.7566    0.0000 C   0  0  0  0  0  0  0  0  0  0  0  0
   -2.5615   -0.5850    0.0000 C   0  0  0  0  0  0  0  0  0  0  0  0
   -2.8164    0.1996    0.0000 C   0  0  0  0  0  0  0  0  0  0  0  0
   -2.2644    0.8127    0.0000 C   0  0  0  0  0  0  0  0  0  0  0  0
   -1.4574    0.6412    0.0000 C   0  0  0  0  0  0  0  0  0  0  0  0
   -0.9054    1.2543    0.0000 F   0  0  0  0  0  0  0  0  0  0  0  0
    0.1565    0.2981    0.0000 C   0  0  0  0  0  0  0  0  0  0  0  0
    0.9635    0.1266    0.0000 C   0  0  0  0  0  0  0  0  0  0  0  0
    1.2184   -0.6580    0.0000 C   0  0  0  0  0  0  0  0  0  0  0  0
    9.1168   -0.9936    0.0000 N   0  0  0  0  0  0  0  0  0  0  0  0
    9.8313   -0.5811    0.0000 O   0  0  0  0  0  0  0  0  0  0  0  0
  1  2  2  0  0  0  0
  2  3  1  0  0  0  0
  3  4  1  0  0  0  0
  4  5  1  0  0  0  0
  5  6  1  0  0  0  0
  6  7  1  0  0  0  0
  7  8  1  0  0  0  0
  8  9  1  0  0  0  0
  9 10  2  0  0  0  0
  9 11  1  0  0  0  0
 11 12  1  0  0  0  0
 12 13  4  0  0  0  0
 13 14  4  0  0  0  0
 14 15  4  0  0  0  0
 15 16  4  0  0  0  0
 16 17  4  0  0  0  0
 17 18  1  0  0  0  0
 18 19  4  0  0  0  0
 19 20  4  0  0  0  0
 20 21  4  0  0  0  0
 21 22  4  0  0  0  0
 22 23  4  0  0  0  0
 18 23  4  0  0  0  0
 23 24  1  0  0  0  0
 17 25  4  0  0  0  0
 25 26  4  0  0  0  0
 26 27  4  0  0  0  0
 12 27  4  0  0  0  0
 15 27  4  0  0  0  0
  2 28  1  0  0  0  0
 28 29  1  0  0  0  0
M  STY  1   1 DAT
M  SAL   1  1  14
M  SDT   1 MRV_IMPLICIT_H                                        
M  SDD   1     0.5304   -0.4125    DR    ALL  0       0  
M  SED   1 IMPL_H1
M  END
>  <Molecule ChEMBL ID>
CHEMBL4786031

>  <Compound Key>
15i

>  <Document ChEMBL ID>
CHEMBL4765277

>  <HDAC1>
1

$$$$

  Mrv1808 03272221002D          

 37 41  0  0  0  0            999 V2000
    6.2102    4.4104    0.0000 C   0  0  0  0  0  0  0  0  0  0  0  0
    6.2102    3.5854    0.0000 C   0  0  0  0  0  0  0  0  0  0  0  0
    5.4957    3.1729    0.0000 C   0  0  0  0  0  0  0  0  0  0  0  0
    5.4957    2.3479    0.0000 C   0  0  0  0  0  0  0  0  0  0  0  0
    4.7812    1.9354    0.0000 C   0  0  0  0  0  0  0  0  0  0  0  0
    4.0668    2.3479    0.0000 C   0  0  0  0  0  0  0  0  0  0  0  0
    3.3523    1.9354    0.0000 C   0  0  0  0  0  0  0  0  0  0  0  0
    3.3523    1.1104    0.0000 N   0  0  0  0  0  0  0  0  0  0  0  0
    2.6378    0.6979    0.0000 C   0  0  0  0  0  0  0  0  0  0  0  0
    2.6378   -0.1271    0.0000 N   0  0  0  0  0  0  0  0  0  0  0  0
    3.3523   -0.5396    0.0000 C   0  0  0  0  0  0  0  0  0  0  0  0
    3.3523   -1.3646    0.0000 C   0  0  0  0  0  0  0  0  0  0  0  0
    2.6378   -1.7771    0.0000 O   0  0  0  0  0  0  0  0  0  0  0  0
    1.9233   -1.3646    0.0000 C   0  0  0  0  0  0  0  0  0  0  0  0
    1.9233   -0.5396    0.0000 C   0  0  0  0  0  0  0  0  0  0  0  0
    1.9233    1.1104    0.0000 C   0  0  0  0  0  0  0  0  0  0  0  0
    1.1387    0.8555    0.0000 N   0  0  0  0  0  0  0  0  0  0  0  0
    0.6538    1.5229    0.0000 C   0  0  0  0  0  0  0  0  0  0  0  0
   -0.1712    1.5229    0.0000 C   0  0  0  0  0  0  0  0  0  0  0  0
   -0.5837    0.8085    0.0000 N   0  0  0  0  0  0  0  0  0  0  0  0
   -0.1712    0.0940    0.0000 C   0  0  0  0  0  0  0  0  0  0  0  0
   -1.4087    0.8085    0.0000 C   0  0  0  0  0  0  0  0  0  0  0  0
   -1.8212    0.0940    0.0000 N   0  0  0  0  0  0  0  0  0  0  0  0
   -2.6462    0.0940    0.0000 C   0  0  0  0  0  0  0  0  0  0  0  0
   -3.0587    0.8085    0.0000 C   0  0  0  0  0  0  0  0  0  0  0  0
   -3.8837    0.8085    0.0000 C   0  0  0  0  0  0  0  0  0  0  0  0
   -4.2962    0.0940    0.0000 O   0  0  0  0  0  0  0  0  0  0  0  0
   -4.2962    1.5229    0.0000 N   0  0  0  0  0  0  0  0  0  0  0  0
   -5.1212    1.5229    0.0000 O   0  0  0  0  0  0  0  0  0  0  0  0
   -2.6462    1.5229    0.0000 C   0  0  0  0  0  0  0  0  0  0  0  0
   -1.8212    1.5229    0.0000 N   0  0  0  0  0  0  0  0  0  0  0  0
    1.1387    2.1904    0.0000 N   0  0  0  0  0  0  0  0  0  0  0  0
    0.8838    2.9750    0.0000 C   0  0  0  0  0  0  0  0  0  0  0  0
    1.9233    1.9354    0.0000 C   0  0  0  0  0  0  0  0  0  0  0  0
    2.6378    2.3479    0.0000 N   0  0  0  0  0  0  0  0  0  0  0  0
    4.0668    3.1729    0.0000 C   0  0  0  0  0  0  0  0  0  0  0  0
    4.7812    3.5854    0.0000 C   0  0  0  0  0  0  0  0  0  0  0  0
  1  2  1  0  0  0  0
  2  3  1  0  0  0  0
  3  4  4  0  0  0  0
  4  5  4  0  0  0  0
  5  6  4  0  0  0  0
  6  7  1  0  0  0  0
  7  8  4  0  0  0  0
  8  9  4  0  0  0  0
  9 10  1  0  0  0  0
 10 11  1  0  0  0  0
 11 12  1  0  0  0  0
 12 13  1  0  0  0  0
 13 14  1  0  0  0  0
 14 15  1  0  0  0  0
 10 15  1  0  0  0  0
  9 16  4  0  0  0  0
 16 17  4  0  0  0  0
 17 18  4  0  0  0  0
 18 19  1  0  0  0  0
 19 20  1  0  0  0  0
 20 21  1  0  0  0  0
 20 22  1  0  0  0  0
 22 23  4  0  0  0  0
 23 24  4  0  0  0  0
 24 25  4  0  0  0  0
 25 26  1  0  0  0  0
 26 27  2  0  0  0  0
 26 28  1  0  0  0  0
 28 29  1  0  0  0  0
 25 30  4  0  0  0  0
 30 31  4  0  0  0  0
 22 31  4  0  0  0  0
 18 32  4  0  0  0  0
 32 33  1  0  0  0  0
 32 34  4  0  0  0  0
 16 34  4  0  0  0  0
 34 35  4  0  0  0  0
  7 35  4  0  0  0  0
  6 36  4  0  0  0  0
 36 37  4  0  0  0  0
  3 37  4  0  0  0  0
M  END
>  <Molecule ChEMBL ID>
CHEMBL3827780

>  <Compound Key>
10l

>  <Document ChEMBL ID>
CHEMBL3826921

>  <HDAC1>
1

$$$$

  Mrv1808 03272221002D          

 25 26  0  0  0  0            999 V2000
    6.4302   -1.2375    0.0000 O   0  0  0  0  0  0  0  0  0  0  0  0
    6.4302   -2.0625    0.0000 C   0  0  0  0  0  0  0  0  0  0  0  0
    5.7158   -2.4750    0.0000 C   0  0  0  0  0  0  0  0  0  0  0  0
    5.0013   -2.0625    0.0000 C   0  0  0  0  0  0  0  0  0  0  0  0
    4.2868   -2.4750    0.0000 C   0  0  0  0  0  0  0  0  0  0  0  0
    3.5724   -2.0625    0.0000 C   0  0  0  0  0  0  0  0  0  0  0  0
    2.8579   -2.4750    0.0000 C   0  0  0  0  0  0  0  0  0  0  0  0
    2.1434   -2.0625    0.0000 C   0  0  0  0  0  0  0  0  0  0  0  0
    2.1434   -1.2375    0.0000 O   0  0  0  0  0  0  0  0  0  0  0  0
    1.4289   -2.4750    0.0000 N   0  0  0  0  0  0  0  0  0  0  0  0
    0.7145   -2.0625    0.0000 N   0  0  0  0  0  0  0  0  0  0  0  0
    0.0000   -2.4750    0.0000 C   0  0  0  0  0  0  0  0  0  0  0  0
   -0.7145   -2.0625    0.0000 C   0  0  0  0  0  0  0  0  0  0  0  0
   -1.4289   -2.4750    0.0000 C   0  0  0  0  0  0  0  0  0  0  0  0
   -2.1434   -2.0625    0.0000 C   0  0  0  0  0  0  0  0  0  0  0  0
   -2.1434   -1.2375    0.0000 C   0  0  0  0  0  0  0  0  0  0  0  0
   -2.8579   -0.8250    0.0000 C   0  0  0  0  0  0  0  0  0  0  0  0
   -3.6116   -1.1606    0.0000 C   0  0  0  0  0  0  0  0  0  0  0  0
   -4.1636   -0.5475    0.0000 C   0  0  0  0  0  0  0  0  0  0  0  0
   -3.7511    0.1670    0.0000 C   0  0  0  0  0  0  0  0  0  0  0  0
   -2.9441   -0.0045    0.0000 S   0  0  0  0  0  0  0  0  0  0  0  0
   -1.4289   -0.8250    0.0000 C   0  0  0  0  0  0  0  0  0  0  0  0
   -0.7145   -1.2375    0.0000 C   0  0  0  0  0  0  0  0  0  0  0  0
    7.1447   -2.4750    0.0000 N   0  0  0  0  0  0  0  0  0  0  0  0
    7.8592   -2.0625    0.0000 O   0  0  0  0  0  0  0  0  0  0  0  0
  1  2  2  0  0  0  0
  2  3  1  0  0  0  0
  3  4  1  0  0  0  0
  4  5  1  0  0  0  0
  5  6  1  0  0  0  0
  6  7  1  0  0  0  0
  7  8  1  0  0  0  0
  8  9  2  0  0  0  0
  8 10  1  0  0  0  0
 10 11  1  0  0  0  0
 11 12  2  0  0  0  0
 12 13  1  0  0  0  0
 13 14  4  0  0  0  0
 14 15  4  0  0  0  0
 15 16  4  0  0  0  0
 16 17  1  0  0  0  0
 17 18  4  0  0  0  0
 18 19  4  0  0  0  0
 19 20  4  0  0  0  0
 20 21  4  0  0  0  0
 17 21  4  0  0  0  0
 16 22  4  0  0  0  0
 22 23  4  0  0  0  0
 13 23  4  0  0  0  0
  2 24  1  0  0  0  0
 24 25  1  0  0  0  0
M  END
>  <Molecule ChEMBL ID>
CHEMBL3758735

>  <Compound Key>
9i

>  <Document ChEMBL ID>
CHEMBL3758132

>  <HDAC1>
1

$$$$

  Mrv1808 03272221002D          

 31 33  0  0  0  0            999 V2000
   -7.2847    2.7961    0.0000 C   0  0  0  0  0  0  0  0  0  0  0  0
   -6.7326    3.4092    0.0000 C   0  0  0  0  0  0  0  0  0  0  0  0
   -5.9257    3.2377    0.0000 O   0  0  0  0  0  0  0  0  0  0  0  0
   -5.3736    3.8508    0.0000 C   0  0  0  0  0  0  0  0  0  0  0  0
   -5.6286    4.6354    0.0000 C   0  0  0  0  0  0  0  0  0  0  0  0
   -5.0765    5.2485    0.0000 C   0  0  0  0  0  0  0  0  0  0  0  0
   -4.2696    5.0769    0.0000 C   0  0  0  0  0  0  0  0  0  0  0  0
   -4.0146    4.2923    0.0000 C   0  0  0  0  0  0  0  0  0  0  0  0
   -3.2077    4.1208    0.0000 C   0  0  0  0  0  0  0  0  0  0  0  0
   -2.6556    4.7339    0.0000 C   0  0  0  0  0  0  0  0  0  0  0  0
   -1.8487    4.5624    0.0000 C   0  0  0  0  0  0  0  0  0  0  0  0
   -1.5937    3.7777    0.0000 C   0  0  0  0  0  0  0  0  0  0  0  0
   -0.8400    3.4422    0.0000 C   0  0  0  0  0  0  0  0  0  0  0  0
   -0.1256    3.8547    0.0000 N   0  0  0  0  0  0  0  0  0  0  0  0
    0.5889    3.4422    0.0000 C   0  0  0  0  0  0  0  0  0  0  0  0
    0.5889    2.6172    0.0000 O   0  0  0  0  0  0  0  0  0  0  0  0
    1.3034    3.8547    0.0000 C   0  0  0  0  0  0  0  0  0  0  0  0
    2.0178    3.4422    0.0000 C   0  0  0  0  0  0  0  0  0  0  0  0
    2.7323    3.8547    0.0000 C   0  0  0  0  0  0  0  0  0  0  0  0
    3.4468    3.4422    0.0000 C   0  0  0  0  0  0  0  0  0  0  0  0
    4.1613    3.8547    0.0000 C   0  0  0  0  0  0  0  0  0  0  0  0
    4.8757    3.4422    0.0000 C   0  0  0  0  0  0  0  0  0  0  0  0
    5.5902    3.8547    0.0000 C   0  0  0  0  0  0  0  0  0  0  0  0
    5.5902    4.6797    0.0000 O   0  0  0  0  0  0  0  0  0  0  0  0
    6.3047    3.4422    0.0000 N   0  0  0  0  0  0  0  0  0  0  0  0
    7.0191    3.8547    0.0000 O   0  0  0  0  0  0  0  0  0  0  0  0
   -0.9263    2.6217    0.0000 N   0  0  0  0  0  0  0  0  0  0  0  0
   -1.7332    2.4502    0.0000 N   0  0  0  0  0  0  0  0  0  0  0  0
   -2.1457    3.1647    0.0000 C   0  0  0  0  0  0  0  0  0  0  0  0
   -2.9527    3.3362    0.0000 C   0  0  0  0  0  0  0  0  0  0  0  0
   -4.5667    3.6792    0.0000 C   0  0  0  0  0  0  0  0  0  0  0  0
  1  2  1  0  0  0  0
  2  3  1  0  0  0  0
  3  4  1  0  0  0  0
  4  5  4  0  0  0  0
  5  6  4  0  0  0  0
  6  7  4  0  0  0  0
  7  8  4  0  0  0  0
  8  9  1  0  0  0  0
  9 10  4  0  0  0  0
 10 11  4  0  0  0  0
 11 12  4  0  0  0  0
 12 13  4  0  0  0  0
 13 14  1  0  0  0  0
 14 15  1  0  0  0  0
 15 16  2  0  0  0  0
 15 17  1  0  0  0  0
 17 18  1  0  0  0  0
 18 19  1  0  0  0  0
 19 20  1  0  0  0  0
 20 21  1  0  0  0  0
 21 22  1  0  0  0  0
 22 23  1  0  0  0  0
 23 24  2  0  0  0  0
 23 25  1  0  0  0  0
 25 26  1  0  0  0  0
 13 27  4  0  0  0  0
 27 28  4  0  0  0  0
 28 29  4  0  0  0  0
 12 29  4  0  0  0  0
 29 30  4  0  0  0  0
  9 30  4  0  0  0  0
  8 31  4  0  0  0  0
  4 31  4  0  0  0  0
M  STY  1   1 DAT
M  SAL   1  1  28
M  SDT   1 MRV_IMPLICIT_H                                        
M  SDD   1     0.5304   -0.4125    DR    ALL  0       0  
M  SED   1 IMPL_H1
M  END
>  <Molecule ChEMBL ID>
CHEMBL4776328

>  <Compound Key>
15c

>  <Document ChEMBL ID>
CHEMBL4765277

>  <HDAC1>
1

$$$$

  Mrv1808 03272221002D          

 26 27  0  0  0  0            999 V2000
    6.4302   -3.7125    0.0000 O   0  0  0  0  0  0  0  0  0  0  0  0
    6.4302   -4.5375    0.0000 C   0  0  0  0  0  0  0  0  0  0  0  0
    5.7158   -4.9500    0.0000 C   0  0  0  0  0  0  0  0  0  0  0  0
    5.0013   -4.5375    0.0000 C   0  0  0  0  0  0  0  0  0  0  0  0
    4.2868   -4.9500    0.0000 C   0  0  0  0  0  0  0  0  0  0  0  0
    3.5724   -4.5375    0.0000 C   0  0  0  0  0  0  0  0  0  0  0  0
    2.8579   -4.9500    0.0000 C   0  0  0  0  0  0  0  0  0  0  0  0
    2.1434   -4.5375    0.0000 C   0  0  0  0  0  0  0  0  0  0  0  0
    2.1434   -3.7125    0.0000 O   0  0  0  0  0  0  0  0  0  0  0  0
    1.4289   -4.9500    0.0000 N   0  0  0  0  0  0  0  0  0  0  0  0
    0.7145   -4.5375    0.0000 N   0  0  0  0  0  0  0  0  0  0  0  0
    0.0000   -4.9500    0.0000 C   0  0  0  0  0  0  0  0  0  0  0  0
   -0.7145   -4.5375    0.0000 C   0  0  0  0  0  0  0  0  0  0  0  0
   -1.4289   -4.9500    0.0000 C   0  0  0  0  0  0  0  0  0  0  0  0
   -2.1434   -4.5375    0.0000 C   0  0  0  0  0  0  0  0  0  0  0  0
   -2.1434   -3.7125    0.0000 C   0  0  0  0  0  0  0  0  0  0  0  0
   -2.8579   -3.3000    0.0000 C   0  0  0  0  0  0  0  0  0  0  0  0
   -3.5724   -3.7125    0.0000 C   0  0  0  0  0  0  0  0  0  0  0  0
   -4.2868   -3.3000    0.0000 C   0  0  0  0  0  0  0  0  0  0  0  0
   -4.2868   -2.4750    0.0000 C   0  0  0  0  0  0  0  0  0  0  0  0
   -3.5724   -2.0625    0.0000 C   0  0  0  0  0  0  0  0  0  0  0  0
   -2.8579   -2.4750    0.0000 N   0  0  0  0  0  0  0  0  0  0  0  0
   -1.4289   -3.3000    0.0000 C   0  0  0  0  0  0  0  0  0  0  0  0
   -0.7145   -3.7125    0.0000 C   0  0  0  0  0  0  0  0  0  0  0  0
    7.1447   -4.9500    0.0000 N   0  0  0  0  0  0  0  0  0  0  0  0
    7.8592   -4.5375    0.0000 O   0  0  0  0  0  0  0  0  0  0  0  0
  1  2  2  0  0  0  0
  2  3  1  0  0  0  0
  3  4  1  0  0  0  0
  4  5  1  0  0  0  0
  5  6  1  0  0  0  0
  6  7  1  0  0  0  0
  7  8  1  0  0  0  0
  8  9  2  0  0  0  0
  8 10  1  0  0  0  0
 10 11  1  0  0  0  0
 11 12  2  0  0  0  0
 12 13  1  0  0  0  0
 13 14  4  0  0  0  0
 14 15  4  0  0  0  0
 15 16  4  0  0  0  0
 16 17  1  0  0  0  0
 17 18  4  0  0  0  0
 18 19  4  0  0  0  0
 19 20  4  0  0  0  0
 20 21  4  0  0  0  0
 21 22  4  0  0  0  0
 17 22  4  0  0  0  0
 16 23  4  0  0  0  0
 23 24  4  0  0  0  0
 13 24  4  0  0  0  0
  2 25  1  0  0  0  0
 25 26  1  0  0  0  0
M  END
>  <Molecule ChEMBL ID>
CHEMBL3758870

>  <Compound Key>
9e

>  <Document ChEMBL ID>
CHEMBL3758132

>  <HDAC1>
1

$$$$

  Mrv1808 03272221002D          

 32 34  0  0  0  0            999 V2000
    8.4023    0.2439    0.0000 O   0  0  0  0  0  0  0  0  0  0  0  0
    8.4023   -0.5811    0.0000 C   0  0  0  0  0  0  0  0  0  0  0  0
    7.6879   -0.9936    0.0000 C   0  0  0  0  0  0  0  0  0  0  0  0
    6.9734   -0.5811    0.0000 C   0  0  0  0  0  0  0  0  0  0  0  0
    6.2589   -0.9936    0.0000 C   0  0  0  0  0  0  0  0  0  0  0  0
    5.5445   -0.5811    0.0000 C   0  0  0  0  0  0  0  0  0  0  0  0
    4.8300   -0.9936    0.0000 C   0  0  0  0  0  0  0  0  0  0  0  0
    4.1155   -0.5811    0.0000 C   0  0  0  0  0  0  0  0  0  0  0  0
    3.4010   -0.9936    0.0000 C   0  0  0  0  0  0  0  0  0  0  0  0
    3.4010   -1.8186    0.0000 O   0  0  0  0  0  0  0  0  0  0  0  0
    2.6866   -0.5811    0.0000 N   0  0  0  0  0  0  0  0  0  0  0  0
    1.9721   -0.9936    0.0000 C   0  0  0  0  0  0  0  0  0  0  0  0
    1.8859   -1.8141    0.0000 N   0  0  0  0  0  0  0  0  0  0  0  0
    1.0789   -1.9856    0.0000 N   0  0  0  0  0  0  0  0  0  0  0  0
    0.6664   -1.2711    0.0000 C   0  0  0  0  0  0  0  0  0  0  0  0
   -0.1406   -1.0996    0.0000 C   0  0  0  0  0  0  0  0  0  0  0  0
   -0.3955   -0.3150    0.0000 C   0  0  0  0  0  0  0  0  0  0  0  0
   -1.2025   -0.1435    0.0000 C   0  0  0  0  0  0  0  0  0  0  0  0
   -1.7545   -0.7566    0.0000 C   0  0  0  0  0  0  0  0  0  0  0  0
   -2.5615   -0.5850    0.0000 C   0  0  0  0  0  0  0  0  0  0  0  0
   -2.8164    0.1996    0.0000 C   0  0  0  0  0  0  0  0  0  0  0  0
   -2.2644    0.8127    0.0000 C   0  0  0  0  0  0  0  0  0  0  0  0
   -2.5193    1.5973    0.0000 C   0  0  0  0  0  0  0  0  0  0  0  0
   -2.7743    2.3819    0.0000 F   0  0  0  0  0  0  0  0  0  0  0  0
   -3.3040    1.3424    0.0000 F   0  0  0  0  0  0  0  0  0  0  0  0
   -1.7347    1.8522    0.0000 F   0  0  0  0  0  0  0  0  0  0  0  0
   -1.4574    0.6412    0.0000 C   0  0  0  0  0  0  0  0  0  0  0  0
    0.1565    0.2981    0.0000 C   0  0  0  0  0  0  0  0  0  0  0  0
    0.9635    0.1266    0.0000 C   0  0  0  0  0  0  0  0  0  0  0  0
    1.2184   -0.6580    0.0000 C   0  0  0  0  0  0  0  0  0  0  0  0
    9.1168   -0.9936    0.0000 N   0  0  0  0  0  0  0  0  0  0  0  0
    9.8313   -0.5811    0.0000 O   0  0  0  0  0  0  0  0  0  0  0  0
  1  2  2  0  0  0  0
  2  3  1  0  0  0  0
  3  4  1  0  0  0  0
  4  5  1  0  0  0  0
  5  6  1  0  0  0  0
  6  7  1  0  0  0  0
  7  8  1  0  0  0  0
  8  9  1  0  0  0  0
  9 10  2  0  0  0  0
  9 11  1  0  0  0  0
 11 12  1  0  0  0  0
 12 13  4  0  0  0  0
 13 14  4  0  0  0  0
 14 15  4  0  0  0  0
 15 16  4  0  0  0  0
 16 17  4  0  0  0  0
 17 18  1  0  0  0  0
 18 19  4  0  0  0  0
 19 20  4  0  0  0  0
 20 21  4  0  0  0  0
 21 22  4  0  0  0  0
 22 23  1  0  0  0  0
 23 24  1  0  0  0  0
 23 25  1  0  0  0  0
 23 26  1  0  0  0  0
 22 27  4  0  0  0  0
 18 27  4  0  0  0  0
 17 28  4  0  0  0  0
 28 29  4  0  0  0  0
 29 30  4  0  0  0  0
 12 30  4  0  0  0  0
 15 30  4  0  0  0  0
  2 31  1  0  0  0  0
 31 32  1  0  0  0  0
M  STY  1   1 DAT
M  SAL   1  1  14
M  SDT   1 MRV_IMPLICIT_H                                        
M  SDD   1     0.5304   -0.4125    DR    ALL  0       0  
M  SED   1 IMPL_H1
M  END
>  <Molecule ChEMBL ID>
CHEMBL4782066

>  <Compound Key>
15l

>  <Document ChEMBL ID>
CHEMBL4765277

>  <HDAC1>
1

$$$$

  Mrv1808 03272221002D          

 34 37  0  0  0  0            999 V2000
    7.1741   -2.8256    0.0000 O   0  0  0  0  0  0  0  0  0  0  0  0
    7.1741   -3.6506    0.0000 C   0  0  0  0  0  0  0  0  0  0  0  0
    6.4596   -4.0631    0.0000 C   0  0  0  0  0  0  0  0  0  0  0  0
    5.7451   -3.6506    0.0000 C   0  0  0  0  0  0  0  0  0  0  0  0
    5.0307   -4.0631    0.0000 C   0  0  0  0  0  0  0  0  0  0  0  0
    4.3162   -3.6506    0.0000 C   0  0  0  0  0  0  0  0  0  0  0  0
    3.6017   -4.0631    0.0000 C   0  0  0  0  0  0  0  0  0  0  0  0
    2.8873   -3.6506    0.0000 C   0  0  0  0  0  0  0  0  0  0  0  0
    2.1728   -4.0631    0.0000 N   0  0  0  0  0  0  0  0  0  0  0  0
    2.0865   -4.8836    0.0000 C   0  0  0  0  0  0  0  0  0  0  0  0
    1.2796   -5.0551    0.0000 C   0  0  0  0  0  0  0  0  0  0  0  0
    0.9440   -5.8088    0.0000 C   0  0  0  0  0  0  0  0  0  0  0  0
    1.4289   -6.4762    0.0000 C   0  0  0  0  0  0  0  0  0  0  0  0
    1.0934   -7.2299    0.0000 C   0  0  0  0  0  0  0  0  0  0  0  0
    0.2729   -7.3162    0.0000 C   0  0  0  0  0  0  0  0  0  0  0  0
   -0.0627   -8.0698    0.0000 N   0  0  0  0  0  0  0  0  0  0  0  0
   -0.8831   -8.1561    0.0000 C   0  0  0  0  0  0  0  0  0  0  0  0
   -1.3681   -7.4886    0.0000 N   0  0  0  0  0  0  0  0  0  0  0  0
   -1.0325   -6.7350    0.0000 C   0  0  0  0  0  0  0  0  0  0  0  0
   -1.5174   -6.0675    0.0000 N   0  0  0  0  0  0  0  0  0  0  0  0
   -2.3379   -6.1537    0.0000 C   0  0  0  0  0  0  0  0  0  0  0  0
   -2.6735   -6.9074    0.0000 C   0  0  0  0  0  0  0  0  0  0  0  0
   -3.4939   -6.9937    0.0000 C   0  0  0  0  0  0  0  0  0  0  0  0
   -3.9789   -6.3262    0.0000 C   0  0  0  0  0  0  0  0  0  0  0  0
   -4.7993   -6.4125    0.0000 F   0  0  0  0  0  0  0  0  0  0  0  0
   -3.6433   -5.5725    0.0000 C   0  0  0  0  0  0  0  0  0  0  0  0
   -4.1282   -4.9051    0.0000 Cl  0  0  0  0  0  0  0  0  0  0  0  0
   -2.8228   -5.4863    0.0000 C   0  0  0  0  0  0  0  0  0  0  0  0
   -0.2120   -6.6487    0.0000 C   0  0  0  0  0  0  0  0  0  0  0  0
    0.1235   -5.8950    0.0000 C   0  0  0  0  0  0  0  0  0  0  0  0
    0.8671   -4.3407    0.0000 N   0  0  0  0  0  0  0  0  0  0  0  0
    1.4191   -3.7276    0.0000 N   0  0  0  0  0  0  0  0  0  0  0  0
    7.8886   -4.0631    0.0000 N   0  0  0  0  0  0  0  0  0  0  0  0
    8.6030   -3.6506    0.0000 O   0  0  0  0  0  0  0  0  0  0  0  0
  1  2  2  0  0  0  0
  2  3  1  0  0  0  0
  3  4  1  0  0  0  0
  4  5  1  0  0  0  0
  5  6  1  0  0  0  0
  6  7  1  0  0  0  0
  7  8  1  0  0  0  0
  8  9  1  0  0  0  0
  9 10  4  0  0  0  0
 10 11  4  0  0  0  0
 11 12  1  0  0  0  0
 12 13  4  0  0  0  0
 13 14  4  0  0  0  0
 14 15  4  0  0  0  0
 15 16  4  0  0  0  0
 16 17  4  0  0  0  0
 17 18  4  0  0  0  0
 18 19  4  0  0  0  0
 19 20  1  0  0  0  0
 20 21  1  0  0  0  0
 21 22  4  0  0  0  0
 22 23  4  0  0  0  0
 23 24  4  0  0  0  0
 24 25  1  0  0  0  0
 24 26  4  0  0  0  0
 26 27  1  0  0  0  0
 26 28  4  0  0  0  0
 21 28  4  0  0  0  0
 19 29  4  0  0  0  0
 15 29  4  0  0  0  0
 29 30  4  0  0  0  0
 12 30  4  0  0  0  0
 11 31  4  0  0  0  0
 31 32  4  0  0  0  0
  9 32  4  0  0  0  0
  2 33  1  0  0  0  0
 33 34  1  0  0  0  0
M  END
>  <Molecule ChEMBL ID>
CHEMBL3957055

>  <Compound Key>
9b

>  <Document ChEMBL ID>
CHEMBL3870325

>  <HDAC1>
1

$$$$

  Mrv1808 03272221002D          

 29 31  0  0  0  0            999 V2000
   -3.3554    8.1567    0.0000 C   0  0  0  0  0  0  0  0  0  0  0  0
   -3.1004    7.3721    0.0000 O   0  0  0  0  0  0  0  0  0  0  0  0
   -2.2935    7.2006    0.0000 C   0  0  0  0  0  0  0  0  0  0  0  0
   -1.7414    7.8137    0.0000 C   0  0  0  0  0  0  0  0  0  0  0  0
   -0.9345    7.6421    0.0000 C   0  0  0  0  0  0  0  0  0  0  0  0
   -0.6795    6.8575    0.0000 C   0  0  0  0  0  0  0  0  0  0  0  0
   -1.2316    6.2444    0.0000 C   0  0  0  0  0  0  0  0  0  0  0  0
   -0.9766    5.4598    0.0000 C   0  0  0  0  0  0  0  0  0  0  0  0
   -0.1696    5.2883    0.0000 C   0  0  0  0  0  0  0  0  0  0  0  0
    0.0853    4.5036    0.0000 C   0  0  0  0  0  0  0  0  0  0  0  0
   -0.4667    3.8905    0.0000 C   0  0  0  0  0  0  0  0  0  0  0  0
   -0.3805    3.0701    0.0000 C   0  0  0  0  0  0  0  0  0  0  0  0
    0.3340    2.6576    0.0000 N   0  0  0  0  0  0  0  0  0  0  0  0
    1.0484    3.0701    0.0000 C   0  0  0  0  0  0  0  0  0  0  0  0
    1.0484    3.8951    0.0000 O   0  0  0  0  0  0  0  0  0  0  0  0
    1.7629    2.6576    0.0000 C   0  0  0  0  0  0  0  0  0  0  0  0
    2.4774    3.0701    0.0000 C   0  0  0  0  0  0  0  0  0  0  0  0
    3.1918    2.6576    0.0000 C   0  0  0  0  0  0  0  0  0  0  0  0
    3.9063    3.0701    0.0000 C   0  0  0  0  0  0  0  0  0  0  0  0
    4.6208    2.6576    0.0000 C   0  0  0  0  0  0  0  0  0  0  0  0
    5.3353    3.0701    0.0000 C   0  0  0  0  0  0  0  0  0  0  0  0
    5.3353    3.8951    0.0000 O   0  0  0  0  0  0  0  0  0  0  0  0
    6.0497    2.6576    0.0000 N   0  0  0  0  0  0  0  0  0  0  0  0
    6.7642    3.0701    0.0000 O   0  0  0  0  0  0  0  0  0  0  0  0
   -1.1342    2.7345    0.0000 N   0  0  0  0  0  0  0  0  0  0  0  0
   -1.6862    3.3476    0.0000 N   0  0  0  0  0  0  0  0  0  0  0  0
   -1.2737    4.0621    0.0000 C   0  0  0  0  0  0  0  0  0  0  0  0
   -1.5287    4.8467    0.0000 C   0  0  0  0  0  0  0  0  0  0  0  0
   -2.0385    6.4159    0.0000 C   0  0  0  0  0  0  0  0  0  0  0  0
  1  2  1  0  0  0  0
  2  3  1  0  0  0  0
  3  4  4  0  0  0  0
  4  5  4  0  0  0  0
  5  6  4  0  0  0  0
  6  7  4  0  0  0  0
  7  8  1  0  0  0  0
  8  9  4  0  0  0  0
  9 10  4  0  0  0  0
 10 11  4  0  0  0  0
 11 12  4  0  0  0  0
 12 13  1  0  0  0  0
 13 14  1  0  0  0  0
 14 15  2  0  0  0  0
 14 16  1  0  0  0  0
 16 17  1  0  0  0  0
 17 18  1  0  0  0  0
 18 19  1  0  0  0  0
 19 20  1  0  0  0  0
 20 21  1  0  0  0  0
 21 22  2  0  0  0  0
 21 23  1  0  0  0  0
 23 24  1  0  0  0  0
 12 25  4  0  0  0  0
 25 26  4  0  0  0  0
 26 27  4  0  0  0  0
 11 27  4  0  0  0  0
 27 28  4  0  0  0  0
  8 28  4  0  0  0  0
  7 29  4  0  0  0  0
  3 29  4  0  0  0  0
M  STY  1   1 DAT
M  SAL   1  1  26
M  SDT   1 MRV_IMPLICIT_H                                        
M  SDD   1     0.5304   -0.4125    DR    ALL  0       0  
M  SED   1 IMPL_H1
M  END
>  <Molecule ChEMBL ID>
CHEMBL4782988

>  <Compound Key>
15s

>  <Document ChEMBL ID>
CHEMBL4765277

>  <HDAC1>
1

$$$$

  Mrv1808 03272221002D          

 37 41  0  0  0  0            999 V2000
    1.4358   -2.7631    0.0000 C   0  0  0  0  0  0  0  0  0  0  0  0
    0.8838   -2.1500    0.0000 C   0  0  0  0  0  0  0  0  0  0  0  0
    1.1387   -1.3654    0.0000 N   0  0  0  0  0  0  0  0  0  0  0  0
    0.6538   -0.6979    0.0000 C   0  0  0  0  0  0  0  0  0  0  0  0
   -0.1712   -0.6979    0.0000 C   0  0  0  0  0  0  0  0  0  0  0  0
   -0.5837    0.0165    0.0000 N   0  0  0  0  0  0  0  0  0  0  0  0
   -0.1712    0.7310    0.0000 C   0  0  0  0  0  0  0  0  0  0  0  0
   -1.4087    0.0165    0.0000 C   0  0  0  0  0  0  0  0  0  0  0  0
   -1.8212   -0.6979    0.0000 N   0  0  0  0  0  0  0  0  0  0  0  0
   -2.6462   -0.6979    0.0000 C   0  0  0  0  0  0  0  0  0  0  0  0
   -3.0587    0.0165    0.0000 C   0  0  0  0  0  0  0  0  0  0  0  0
   -3.8837    0.0165    0.0000 C   0  0  0  0  0  0  0  0  0  0  0  0
   -4.2962   -0.6979    0.0000 O   0  0  0  0  0  0  0  0  0  0  0  0
   -4.2962    0.7310    0.0000 N   0  0  0  0  0  0  0  0  0  0  0  0
   -5.1212    0.7310    0.0000 O   0  0  0  0  0  0  0  0  0  0  0  0
   -2.6462    0.7310    0.0000 C   0  0  0  0  0  0  0  0  0  0  0  0
   -1.8212    0.7310    0.0000 N   0  0  0  0  0  0  0  0  0  0  0  0
    1.1387   -0.0305    0.0000 N   0  0  0  0  0  0  0  0  0  0  0  0
    1.9233   -0.2854    0.0000 C   0  0  0  0  0  0  0  0  0  0  0  0
    2.6378    0.1271    0.0000 C   0  0  0  0  0  0  0  0  0  0  0  0
    2.6378    0.9521    0.0000 N   0  0  0  0  0  0  0  0  0  0  0  0
    1.9233    1.3646    0.0000 C   0  0  0  0  0  0  0  0  0  0  0  0
    1.9233    2.1896    0.0000 C   0  0  0  0  0  0  0  0  0  0  0  0
    2.6378    2.6021    0.0000 O   0  0  0  0  0  0  0  0  0  0  0  0
    3.3523    2.1896    0.0000 C   0  0  0  0  0  0  0  0  0  0  0  0
    3.3523    1.3646    0.0000 C   0  0  0  0  0  0  0  0  0  0  0  0
    3.3523   -0.2854    0.0000 N   0  0  0  0  0  0  0  0  0  0  0  0
    3.3523   -1.1104    0.0000 C   0  0  0  0  0  0  0  0  0  0  0  0
    4.0668   -1.5229    0.0000 C   0  0  0  0  0  0  0  0  0  0  0  0
    4.7812   -1.1104    0.0000 C   0  0  0  0  0  0  0  0  0  0  0  0
    5.4957   -1.5229    0.0000 N   0  0  0  0  0  0  0  0  0  0  0  0
    5.4957   -2.3479    0.0000 C   0  0  0  0  0  0  0  0  0  0  0  0
    6.2102   -2.7604    0.0000 N   0  0  0  0  0  0  0  0  0  0  0  0
    4.7812   -2.7604    0.0000 N   0  0  0  0  0  0  0  0  0  0  0  0
    4.0668   -2.3479    0.0000 C   0  0  0  0  0  0  0  0  0  0  0  0
    2.6378   -1.5229    0.0000 N   0  0  0  0  0  0  0  0  0  0  0  0
    1.9233   -1.1104    0.0000 C   0  0  0  0  0  0  0  0  0  0  0  0
  1  2  1  0  0  0  0
  2  3  1  0  0  0  0
  3  4  4  0  0  0  0
  4  5  1  0  0  0  0
  5  6  1  0  0  0  0
  6  7  1  0  0  0  0
  6  8  1  0  0  0  0
  8  9  4  0  0  0  0
  9 10  4  0  0  0  0
 10 11  4  0  0  0  0
 11 12  1  0  0  0  0
 12 13  2  0  0  0  0
 12 14  1  0  0  0  0
 14 15  1  0  0  0  0
 11 16  4  0  0  0  0
 16 17  4  0  0  0  0
  8 17  4  0  0  0  0
  4 18  4  0  0  0  0
 18 19  4  0  0  0  0
 19 20  4  0  0  0  0
 20 21  1  0  0  0  0
 21 22  1  0  0  0  0
 22 23  1  0  0  0  0
 23 24  1  0  0  0  0
 24 25  1  0  0  0  0
 25 26  1  0  0  0  0
 21 26  1  0  0  0  0
 20 27  4  0  0  0  0
 27 28  4  0  0  0  0
 28 29  1  0  0  0  0
 29 30  4  0  0  0  0
 30 31  4  0  0  0  0
 31 32  4  0  0  0  0
 32 33  1  0  0  0  0
 32 34  4  0  0  0  0
 34 35  4  0  0  0  0
 29 35  4  0  0  0  0
 28 36  4  0  0  0  0
 36 37  4  0  0  0  0
 19 37  4  0  0  0  0
  3 37  4  0  0  0  0
M  END
>  <Molecule ChEMBL ID>
CHEMBL3828482

>  <Compound Key>
18g

>  <Document ChEMBL ID>
CHEMBL3826921

>  <HDAC1>
1

$$$$

  Mrv1808 03272221002D          

 30 32  0  0  0  0            999 V2000
   -6.9876    4.1938    0.0000 C   0  0  0  0  0  0  0  0  0  0  0  0
   -6.4355    4.8069    0.0000 O   0  0  0  0  0  0  0  0  0  0  0  0
   -5.6286    4.6354    0.0000 C   0  0  0  0  0  0  0  0  0  0  0  0
   -5.0765    5.2485    0.0000 C   0  0  0  0  0  0  0  0  0  0  0  0
   -4.2696    5.0769    0.0000 C   0  0  0  0  0  0  0  0  0  0  0  0
   -4.0146    4.2923    0.0000 C   0  0  0  0  0  0  0  0  0  0  0  0
   -3.2077    4.1208    0.0000 C   0  0  0  0  0  0  0  0  0  0  0  0
   -2.6556    4.7339    0.0000 C   0  0  0  0  0  0  0  0  0  0  0  0
   -1.8487    4.5624    0.0000 C   0  0  0  0  0  0  0  0  0  0  0  0
   -1.5937    3.7777    0.0000 C   0  0  0  0  0  0  0  0  0  0  0  0
   -0.8400    3.4422    0.0000 C   0  0  0  0  0  0  0  0  0  0  0  0
   -0.1256    3.8547    0.0000 N   0  0  0  0  0  0  0  0  0  0  0  0
    0.5889    3.4422    0.0000 C   0  0  0  0  0  0  0  0  0  0  0  0
    0.5889    2.6172    0.0000 O   0  0  0  0  0  0  0  0  0  0  0  0
    1.3034    3.8547    0.0000 C   0  0  0  0  0  0  0  0  0  0  0  0
    2.0178    3.4422    0.0000 C   0  0  0  0  0  0  0  0  0  0  0  0
    2.7323    3.8547    0.0000 C   0  0  0  0  0  0  0  0  0  0  0  0
    3.4468    3.4422    0.0000 C   0  0  0  0  0  0  0  0  0  0  0  0
    4.1613    3.8547    0.0000 C   0  0  0  0  0  0  0  0  0  0  0  0
    4.8757    3.4422    0.0000 C   0  0  0  0  0  0  0  0  0  0  0  0
    5.5902    3.8547    0.0000 C   0  0  0  0  0  0  0  0  0  0  0  0
    5.5902    4.6797    0.0000 O   0  0  0  0  0  0  0  0  0  0  0  0
    6.3047    3.4422    0.0000 N   0  0  0  0  0  0  0  0  0  0  0  0
    7.0191    3.8547    0.0000 O   0  0  0  0  0  0  0  0  0  0  0  0
   -0.9263    2.6217    0.0000 N   0  0  0  0  0  0  0  0  0  0  0  0
   -1.7332    2.4502    0.0000 N   0  0  0  0  0  0  0  0  0  0  0  0
   -2.1457    3.1647    0.0000 C   0  0  0  0  0  0  0  0  0  0  0  0
   -2.9527    3.3362    0.0000 C   0  0  0  0  0  0  0  0  0  0  0  0
   -4.5667    3.6792    0.0000 C   0  0  0  0  0  0  0  0  0  0  0  0
   -5.3736    3.8508    0.0000 C   0  0  0  0  0  0  0  0  0  0  0  0
  1  2  1  0  0  0  0
  2  3  1  0  0  0  0
  3  4  4  0  0  0  0
  4  5  4  0  0  0  0
  5  6  4  0  0  0  0
  6  7  1  0  0  0  0
  7  8  4  0  0  0  0
  8  9  4  0  0  0  0
  9 10  4  0  0  0  0
 10 11  4  0  0  0  0
 11 12  1  0  0  0  0
 12 13  1  0  0  0  0
 13 14  2  0  0  0  0
 13 15  1  0  0  0  0
 15 16  1  0  0  0  0
 16 17  1  0  0  0  0
 17 18  1  0  0  0  0
 18 19  1  0  0  0  0
 19 20  1  0  0  0  0
 20 21  1  0  0  0  0
 21 22  2  0  0  0  0
 21 23  1  0  0  0  0
 23 24  1  0  0  0  0
 11 25  4  0  0  0  0
 25 26  4  0  0  0  0
 26 27  4  0  0  0  0
 10 27  4  0  0  0  0
 27 28  4  0  0  0  0
  7 28  4  0  0  0  0
  6 29  4  0  0  0  0
 29 30  4  0  0  0  0
  3 30  4  0  0  0  0
M  STY  1   1 DAT
M  SAL   1  1  26
M  SDT   1 MRV_IMPLICIT_H                                        
M  SDD   1     0.5304   -0.4125    DR    ALL  0       0  
M  SED   1 IMPL_H1
M  END
>  <Molecule ChEMBL ID>
CHEMBL4788954

>  <Compound Key>
15k

>  <Document ChEMBL ID>
CHEMBL4765277

>  <HDAC1>
1

$$$$

  Mrv1808 03272221002D          

 29 31  0  0  0  0            999 V2000
    8.4023    0.2439    0.0000 O   0  0  0  0  0  0  0  0  0  0  0  0
    8.4023   -0.5811    0.0000 C   0  0  0  0  0  0  0  0  0  0  0  0
    7.6879   -0.9936    0.0000 C   0  0  0  0  0  0  0  0  0  0  0  0
    6.9734   -0.5811    0.0000 C   0  0  0  0  0  0  0  0  0  0  0  0
    6.2589   -0.9936    0.0000 C   0  0  0  0  0  0  0  0  0  0  0  0
    5.5445   -0.5811    0.0000 C   0  0  0  0  0  0  0  0  0  0  0  0
    4.8300   -0.9936    0.0000 C   0  0  0  0  0  0  0  0  0  0  0  0
    4.1155   -0.5811    0.0000 C   0  0  0  0  0  0  0  0  0  0  0  0
    3.4010   -0.9936    0.0000 C   0  0  0  0  0  0  0  0  0  0  0  0
    3.4010   -1.8186    0.0000 O   0  0  0  0  0  0  0  0  0  0  0  0
    2.6866   -0.5811    0.0000 N   0  0  0  0  0  0  0  0  0  0  0  0
    1.9721   -0.9936    0.0000 C   0  0  0  0  0  0  0  0  0  0  0  0
    1.8859   -1.8141    0.0000 N   0  0  0  0  0  0  0  0  0  0  0  0
    1.0789   -1.9856    0.0000 N   0  0  0  0  0  0  0  0  0  0  0  0
    0.6664   -1.2711    0.0000 C   0  0  0  0  0  0  0  0  0  0  0  0
   -0.1406   -1.0996    0.0000 C   0  0  0  0  0  0  0  0  0  0  0  0
   -0.3955   -0.3150    0.0000 C   0  0  0  0  0  0  0  0  0  0  0  0
   -1.2025   -0.1435    0.0000 C   0  0  0  0  0  0  0  0  0  0  0  0
   -1.7545   -0.7566    0.0000 C   0  0  0  0  0  0  0  0  0  0  0  0
   -2.5615   -0.5850    0.0000 C   0  0  0  0  0  0  0  0  0  0  0  0
   -2.8164    0.1996    0.0000 C   0  0  0  0  0  0  0  0  0  0  0  0
   -2.2644    0.8127    0.0000 C   0  0  0  0  0  0  0  0  0  0  0  0
   -1.4574    0.6412    0.0000 C   0  0  0  0  0  0  0  0  0  0  0  0
   -0.9054    1.2543    0.0000 Cl  0  0  0  0  0  0  0  0  0  0  0  0
    0.1565    0.2981    0.0000 C   0  0  0  0  0  0  0  0  0  0  0  0
    0.9635    0.1266    0.0000 C   0  0  0  0  0  0  0  0  0  0  0  0
    1.2184   -0.6580    0.0000 C   0  0  0  0  0  0  0  0  0  0  0  0
    9.1168   -0.9936    0.0000 N   0  0  0  0  0  0  0  0  0  0  0  0
    9.8313   -0.5811    0.0000 O   0  0  0  0  0  0  0  0  0  0  0  0
  1  2  2  0  0  0  0
  2  3  1  0  0  0  0
  3  4  1  0  0  0  0
  4  5  1  0  0  0  0
  5  6  1  0  0  0  0
  6  7  1  0  0  0  0
  7  8  1  0  0  0  0
  8  9  1  0  0  0  0
  9 10  2  0  0  0  0
  9 11  1  0  0  0  0
 11 12  1  0  0  0  0
 12 13  4  0  0  0  0
 13 14  4  0  0  0  0
 14 15  4  0  0  0  0
 15 16  4  0  0  0  0
 16 17  4  0  0  0  0
 17 18  1  0  0  0  0
 18 19  4  0  0  0  0
 19 20  4  0  0  0  0
 20 21  4  0  0  0  0
 21 22  4  0  0  0  0
 22 23  4  0  0  0  0
 18 23  4  0  0  0  0
 23 24  1  0  0  0  0
 17 25  4  0  0  0  0
 25 26  4  0  0  0  0
 26 27  4  0  0  0  0
 12 27  4  0  0  0  0
 15 27  4  0  0  0  0
  2 28  1  0  0  0  0
 28 29  1  0  0  0  0
M  STY  1   1 DAT
M  SAL   1  1  14
M  SDT   1 MRV_IMPLICIT_H                                        
M  SDD   1     0.5304   -0.4125    DR    ALL  0       0  
M  SED   1 IMPL_H1
M  END
>  <Molecule ChEMBL ID>
CHEMBL4792567

>  <Compound Key>
15e

>  <Document ChEMBL ID>
CHEMBL4765277

>  <HDAC1>
1

$$$$

  Mrv1808 03272221002D          

 31 33  0  0  0  0            999 V2000
   -6.7326    3.4092    0.0000 C   0  0  0  0  0  0  0  0  0  0  0  0
   -5.9257    3.2377    0.0000 O   0  0  0  0  0  0  0  0  0  0  0  0
   -5.3736    3.8508    0.0000 C   0  0  0  0  0  0  0  0  0  0  0  0
   -5.6286    4.6354    0.0000 C   0  0  0  0  0  0  0  0  0  0  0  0
   -5.0765    5.2485    0.0000 C   0  0  0  0  0  0  0  0  0  0  0  0
   -4.2696    5.0769    0.0000 C   0  0  0  0  0  0  0  0  0  0  0  0
   -3.7175    5.6900    0.0000 F   0  0  0  0  0  0  0  0  0  0  0  0
   -4.0146    4.2923    0.0000 C   0  0  0  0  0  0  0  0  0  0  0  0
   -3.2077    4.1208    0.0000 C   0  0  0  0  0  0  0  0  0  0  0  0
   -2.6556    4.7339    0.0000 C   0  0  0  0  0  0  0  0  0  0  0  0
   -1.8487    4.5624    0.0000 C   0  0  0  0  0  0  0  0  0  0  0  0
   -1.5937    3.7777    0.0000 C   0  0  0  0  0  0  0  0  0  0  0  0
   -0.8400    3.4422    0.0000 C   0  0  0  0  0  0  0  0  0  0  0  0
   -0.1256    3.8547    0.0000 N   0  0  0  0  0  0  0  0  0  0  0  0
    0.5889    3.4422    0.0000 C   0  0  0  0  0  0  0  0  0  0  0  0
    0.5889    2.6172    0.0000 O   0  0  0  0  0  0  0  0  0  0  0  0
    1.3034    3.8547    0.0000 C   0  0  0  0  0  0  0  0  0  0  0  0
    2.0178    3.4422    0.0000 C   0  0  0  0  0  0  0  0  0  0  0  0
    2.7323    3.8547    0.0000 C   0  0  0  0  0  0  0  0  0  0  0  0
    3.4468    3.4422    0.0000 C   0  0  0  0  0  0  0  0  0  0  0  0
    4.1613    3.8547    0.0000 C   0  0  0  0  0  0  0  0  0  0  0  0
    4.8757    3.4422    0.0000 C   0  0  0  0  0  0  0  0  0  0  0  0
    5.5902    3.8547    0.0000 C   0  0  0  0  0  0  0  0  0  0  0  0
    5.5902    4.6797    0.0000 O   0  0  0  0  0  0  0  0  0  0  0  0
    6.3047    3.4422    0.0000 N   0  0  0  0  0  0  0  0  0  0  0  0
    7.0191    3.8547    0.0000 O   0  0  0  0  0  0  0  0  0  0  0  0
   -0.9263    2.6217    0.0000 N   0  0  0  0  0  0  0  0  0  0  0  0
   -1.7332    2.4502    0.0000 N   0  0  0  0  0  0  0  0  0  0  0  0
   -2.1457    3.1647    0.0000 C   0  0  0  0  0  0  0  0  0  0  0  0
   -2.9527    3.3362    0.0000 C   0  0  0  0  0  0  0  0  0  0  0  0
   -4.5667    3.6792    0.0000 C   0  0  0  0  0  0  0  0  0  0  0  0
  1  2  1  0  0  0  0
  2  3  1  0  0  0  0
  3  4  4  0  0  0  0
  4  5  4  0  0  0  0
  5  6  4  0  0  0  0
  6  7  1  0  0  0  0
  6  8  4  0  0  0  0
  8  9  1  0  0  0  0
  9 10  4  0  0  0  0
 10 11  4  0  0  0  0
 11 12  4  0  0  0  0
 12 13  4  0  0  0  0
 13 14  1  0  0  0  0
 14 15  1  0  0  0  0
 15 16  2  0  0  0  0
 15 17  1  0  0  0  0
 17 18  1  0  0  0  0
 18 19  1  0  0  0  0
 19 20  1  0  0  0  0
 20 21  1  0  0  0  0
 21 22  1  0  0  0  0
 22 23  1  0  0  0  0
 23 24  2  0  0  0  0
 23 25  1  0  0  0  0
 25 26  1  0  0  0  0
 13 27  4  0  0  0  0
 27 28  4  0  0  0  0
 28 29  4  0  0  0  0
 12 29  4  0  0  0  0
 29 30  4  0  0  0  0
  9 30  4  0  0  0  0
  8 31  4  0  0  0  0
  3 31  4  0  0  0  0
M  STY  1   1 DAT
M  SAL   1  1  28
M  SDT   1 MRV_IMPLICIT_H                                        
M  SDD   1     0.5304   -0.4125    DR    ALL  0       0  
M  SED   1 IMPL_H1
M  END
>  <Molecule ChEMBL ID>
CHEMBL4799886

>  <Compound Key>
15g

>  <Document ChEMBL ID>
CHEMBL4765277

>  <HDAC1>
1

$$$$

  Mrv1808 03272221002D          

 26 27  0  0  0  0            999 V2000
    6.4302   -3.7125    0.0000 O   0  0  0  0  0  0  0  0  0  0  0  0
    6.4302   -4.5375    0.0000 C   0  0  0  0  0  0  0  0  0  0  0  0
    5.7158   -4.9500    0.0000 C   0  0  0  0  0  0  0  0  0  0  0  0
    5.0013   -4.5375    0.0000 C   0  0  0  0  0  0  0  0  0  0  0  0
    4.2868   -4.9500    0.0000 C   0  0  0  0  0  0  0  0  0  0  0  0
    3.5724   -4.5375    0.0000 C   0  0  0  0  0  0  0  0  0  0  0  0
    2.8579   -4.9500    0.0000 C   0  0  0  0  0  0  0  0  0  0  0  0
    2.1434   -4.5375    0.0000 C   0  0  0  0  0  0  0  0  0  0  0  0
    2.1434   -3.7125    0.0000 O   0  0  0  0  0  0  0  0  0  0  0  0
    1.4289   -4.9500    0.0000 N   0  0  0  0  0  0  0  0  0  0  0  0
    0.7145   -4.5375    0.0000 N   0  0  0  0  0  0  0  0  0  0  0  0
    0.0000   -4.9500    0.0000 C   0  0  0  0  0  0  0  0  0  0  0  0
   -0.7145   -4.5375    0.0000 C   0  0  0  0  0  0  0  0  0  0  0  0
   -1.4289   -4.9500    0.0000 C   0  0  0  0  0  0  0  0  0  0  0  0
   -2.1434   -4.5375    0.0000 C   0  0  0  0  0  0  0  0  0  0  0  0
   -2.1434   -3.7125    0.0000 C   0  0  0  0  0  0  0  0  0  0  0  0
   -2.8579   -3.3000    0.0000 C   0  0  0  0  0  0  0  0  0  0  0  0
   -3.5724   -3.7125    0.0000 C   0  0  0  0  0  0  0  0  0  0  0  0
   -4.2868   -3.3000    0.0000 C   0  0  0  0  0  0  0  0  0  0  0  0
   -4.2868   -2.4750    0.0000 N   0  0  0  0  0  0  0  0  0  0  0  0
   -3.5724   -2.0625    0.0000 C   0  0  0  0  0  0  0  0  0  0  0  0
   -2.8579   -2.4750    0.0000 C   0  0  0  0  0  0  0  0  0  0  0  0
   -1.4289   -3.3000    0.0000 C   0  0  0  0  0  0  0  0  0  0  0  0
   -0.7145   -3.7125    0.0000 C   0  0  0  0  0  0  0  0  0  0  0  0
    7.1447   -4.9500    0.0000 N   0  0  0  0  0  0  0  0  0  0  0  0
    7.8592   -4.5375    0.0000 O   0  0  0  0  0  0  0  0  0  0  0  0
  1  2  2  0  0  0  0
  2  3  1  0  0  0  0
  3  4  1  0  0  0  0
  4  5  1  0  0  0  0
  5  6  1  0  0  0  0
  6  7  1  0  0  0  0
  7  8  1  0  0  0  0
  8  9  2  0  0  0  0
  8 10  1  0  0  0  0
 10 11  1  0  0  0  0
 11 12  2  0  0  0  0
 12 13  1  0  0  0  0
 13 14  4  0  0  0  0
 14 15  4  0  0  0  0
 15 16  4  0  0  0  0
 16 17  1  0  0  0  0
 17 18  4  0  0  0  0
 18 19  4  0  0  0  0
 19 20  4  0  0  0  0
 20 21  4  0  0  0  0
 21 22  4  0  0  0  0
 17 22  4  0  0  0  0
 16 23  4  0  0  0  0
 23 24  4  0  0  0  0
 13 24  4  0  0  0  0
  2 25  1  0  0  0  0
 25 26  1  0  0  0  0
M  END
>  <Molecule ChEMBL ID>
CHEMBL3758281

>  <Compound Key>
9g

>  <Document ChEMBL ID>
CHEMBL3758132

>  <HDAC1>
1

$$$$

  Mrv1808 03272221002D          

 31 33  0  0  0  0            999 V2000
   -6.7326    3.4092    0.0000 C   0  0  0  0  0  0  0  0  0  0  0  0
   -5.9257    3.2377    0.0000 O   0  0  0  0  0  0  0  0  0  0  0  0
   -5.3736    3.8508    0.0000 C   0  0  0  0  0  0  0  0  0  0  0  0
   -5.6286    4.6354    0.0000 C   0  0  0  0  0  0  0  0  0  0  0  0
   -5.0765    5.2485    0.0000 C   0  0  0  0  0  0  0  0  0  0  0  0
   -4.2696    5.0769    0.0000 C   0  0  0  0  0  0  0  0  0  0  0  0
   -4.0146    4.2923    0.0000 C   0  0  0  0  0  0  0  0  0  0  0  0
   -3.2077    4.1208    0.0000 C   0  0  0  0  0  0  0  0  0  0  0  0
   -2.6556    4.7339    0.0000 C   0  0  0  0  0  0  0  0  0  0  0  0
   -1.8487    4.5624    0.0000 C   0  0  0  0  0  0  0  0  0  0  0  0
   -1.5937    3.7777    0.0000 C   0  0  0  0  0  0  0  0  0  0  0  0
   -0.8400    3.4422    0.0000 C   0  0  0  0  0  0  0  0  0  0  0  0
   -0.1256    3.8547    0.0000 N   0  0  0  0  0  0  0  0  0  0  0  0
    0.5889    3.4422    0.0000 C   0  0  0  0  0  0  0  0  0  0  0  0
    0.5889    2.6172    0.0000 O   0  0  0  0  0  0  0  0  0  0  0  0
    1.3034    3.8547    0.0000 C   0  0  0  0  0  0  0  0  0  0  0  0
    2.0178    3.4422    0.0000 C   0  0  0  0  0  0  0  0  0  0  0  0
    2.7323    3.8547    0.0000 C   0  0  0  0  0  0  0  0  0  0  0  0
    3.4468    3.4422    0.0000 C   0  0  0  0  0  0  0  0  0  0  0  0
    4.1613    3.8547    0.0000 C   0  0  0  0  0  0  0  0  0  0  0  0
    4.8757    3.4422    0.0000 C   0  0  0  0  0  0  0  0  0  0  0  0
    5.5902    3.8547    0.0000 C   0  0  0  0  0  0  0  0  0  0  0  0
    5.5902    4.6797    0.0000 O   0  0  0  0  0  0  0  0  0  0  0  0
    6.3047    3.4422    0.0000 N   0  0  0  0  0  0  0  0  0  0  0  0
    7.0191    3.8547    0.0000 O   0  0  0  0  0  0  0  0  0  0  0  0
   -0.9263    2.6217    0.0000 N   0  0  0  0  0  0  0  0  0  0  0  0
   -1.7332    2.4502    0.0000 N   0  0  0  0  0  0  0  0  0  0  0  0
   -2.1457    3.1647    0.0000 C   0  0  0  0  0  0  0  0  0  0  0  0
   -2.9527    3.3362    0.0000 C   0  0  0  0  0  0  0  0  0  0  0  0
   -4.5667    3.6792    0.0000 C   0  0  0  0  0  0  0  0  0  0  0  0
   -4.3117    2.8946    0.0000 F   0  0  0  0  0  0  0  0  0  0  0  0
  1  2  1  0  0  0  0
  2  3  1  0  0  0  0
  3  4  4  0  0  0  0
  4  5  4  0  0  0  0
  5  6  4  0  0  0  0
  6  7  4  0  0  0  0
  7  8  1  0  0  0  0
  8  9  4  0  0  0  0
  9 10  4  0  0  0  0
 10 11  4  0  0  0  0
 11 12  4  0  0  0  0
 12 13  1  0  0  0  0
 13 14  1  0  0  0  0
 14 15  2  0  0  0  0
 14 16  1  0  0  0  0
 16 17  1  0  0  0  0
 17 18  1  0  0  0  0
 18 19  1  0  0  0  0
 19 20  1  0  0  0  0
 20 21  1  0  0  0  0
 21 22  1  0  0  0  0
 22 23  2  0  0  0  0
 22 24  1  0  0  0  0
 24 25  1  0  0  0  0
 12 26  4  0  0  0  0
 26 27  4  0  0  0  0
 27 28  4  0  0  0  0
 11 28  4  0  0  0  0
 28 29  4  0  0  0  0
  8 29  4  0  0  0  0
  7 30  4  0  0  0  0
  3 30  4  0  0  0  0
 30 31  1  0  0  0  0
M  STY  1   1 DAT
M  SAL   1  1  27
M  SDT   1 MRV_IMPLICIT_H                                        
M  SDD   1     0.5304   -0.4125    DR    ALL  0       0  
M  SED   1 IMPL_H1
M  END
>  <Molecule ChEMBL ID>
CHEMBL4776974

>  <Compound Key>
15h

>  <Document ChEMBL ID>
CHEMBL4765277

>  <HDAC1>
1

$$$$

  Mrv1808 03272221002D          

 26 27  0  0  0  0            999 V2000
    6.4302   -3.7125    0.0000 O   0  0  0  0  0  0  0  0  0  0  0  0
    6.4302   -4.5375    0.0000 C   0  0  0  0  0  0  0  0  0  0  0  0
    5.7158   -4.9500    0.0000 C   0  0  0  0  0  0  0  0  0  0  0  0
    5.0013   -4.5375    0.0000 C   0  0  0  0  0  0  0  0  0  0  0  0
    4.2868   -4.9500    0.0000 C   0  0  0  0  0  0  0  0  0  0  0  0
    3.5724   -4.5375    0.0000 C   0  0  0  0  0  0  0  0  0  0  0  0
    2.8579   -4.9500    0.0000 C   0  0  0  0  0  0  0  0  0  0  0  0
    2.1434   -4.5375    0.0000 C   0  0  0  0  0  0  0  0  0  0  0  0
    2.1434   -3.7125    0.0000 O   0  0  0  0  0  0  0  0  0  0  0  0
    1.4289   -4.9500    0.0000 N   0  0  0  0  0  0  0  0  0  0  0  0
    0.7145   -4.5375    0.0000 N   0  0  0  0  0  0  0  0  0  0  0  0
    0.0000   -4.9500    0.0000 C   0  0  0  0  0  0  0  0  0  0  0  0
   -0.7145   -4.5375    0.0000 C   0  0  0  0  0  0  0  0  0  0  0  0
   -1.4289   -4.9500    0.0000 C   0  0  0  0  0  0  0  0  0  0  0  0
   -2.1434   -4.5375    0.0000 C   0  0  0  0  0  0  0  0  0  0  0  0
   -2.1434   -3.7125    0.0000 C   0  0  0  0  0  0  0  0  0  0  0  0
   -2.8579   -3.3000    0.0000 C   0  0  0  0  0  0  0  0  0  0  0  0
   -3.5724   -3.7125    0.0000 C   0  0  0  0  0  0  0  0  0  0  0  0
   -4.2868   -3.3000    0.0000 N   0  0  0  0  0  0  0  0  0  0  0  0
   -4.2868   -2.4750    0.0000 C   0  0  0  0  0  0  0  0  0  0  0  0
   -3.5724   -2.0625    0.0000 N   0  0  0  0  0  0  0  0  0  0  0  0
   -2.8579   -2.4750    0.0000 C   0  0  0  0  0  0  0  0  0  0  0  0
   -1.4289   -3.3000    0.0000 C   0  0  0  0  0  0  0  0  0  0  0  0
   -0.7145   -3.7125    0.0000 C   0  0  0  0  0  0  0  0  0  0  0  0
    7.1447   -4.9500    0.0000 N   0  0  0  0  0  0  0  0  0  0  0  0
    7.8592   -4.5375    0.0000 O   0  0  0  0  0  0  0  0  0  0  0  0
  1  2  2  0  0  0  0
  2  3  1  0  0  0  0
  3  4  1  0  0  0  0
  4  5  1  0  0  0  0
  5  6  1  0  0  0  0
  6  7  1  0  0  0  0
  7  8  1  0  0  0  0
  8  9  2  0  0  0  0
  8 10  1  0  0  0  0
 10 11  1  0  0  0  0
 11 12  2  0  0  0  0
 12 13  1  0  0  0  0
 13 14  4  0  0  0  0
 14 15  4  0  0  0  0
 15 16  4  0  0  0  0
 16 17  1  0  0  0  0
 17 18  4  0  0  0  0
 18 19  4  0  0  0  0
 19 20  4  0  0  0  0
 20 21  4  0  0  0  0
 21 22  4  0  0  0  0
 17 22  4  0  0  0  0
 16 23  4  0  0  0  0
 23 24  4  0  0  0  0
 13 24  4  0  0  0  0
  2 25  1  0  0  0  0
 25 26  1  0  0  0  0
M  END
>  <Molecule ChEMBL ID>
CHEMBL3758492

>  <Compound Key>
9h

>  <Document ChEMBL ID>
CHEMBL3758132

>  <HDAC1>
1

$$$$

  Mrv1808 03272221002D          

 32 34  0  0  0  0            999 V2000
   -6.9876    4.1938    0.0000 C   0  0  0  0  0  0  0  0  0  0  0  0
   -6.4355    4.8069    0.0000 O   0  0  0  0  0  0  0  0  0  0  0  0
   -5.6286    4.6354    0.0000 C   0  0  0  0  0  0  0  0  0  0  0  0
   -5.0765    5.2485    0.0000 C   0  0  0  0  0  0  0  0  0  0  0  0
   -4.2696    5.0769    0.0000 C   0  0  0  0  0  0  0  0  0  0  0  0
   -4.0146    4.2923    0.0000 C   0  0  0  0  0  0  0  0  0  0  0  0
   -3.2077    4.1208    0.0000 C   0  0  0  0  0  0  0  0  0  0  0  0
   -2.6556    4.7339    0.0000 C   0  0  0  0  0  0  0  0  0  0  0  0
   -1.8487    4.5624    0.0000 C   0  0  0  0  0  0  0  0  0  0  0  0
   -1.5937    3.7777    0.0000 C   0  0  0  0  0  0  0  0  0  0  0  0
   -0.8400    3.4422    0.0000 C   0  0  0  0  0  0  0  0  0  0  0  0
   -0.1256    3.8547    0.0000 N   0  0  0  0  0  0  0  0  0  0  0  0
    0.5889    3.4422    0.0000 C   0  0  0  0  0  0  0  0  0  0  0  0
    0.5889    2.6172    0.0000 O   0  0  0  0  0  0  0  0  0  0  0  0
    1.3034    3.8547    0.0000 C   0  0  0  0  0  0  0  0  0  0  0  0
    2.0178    3.4422    0.0000 C   0  0  0  0  0  0  0  0  0  0  0  0
    2.7323    3.8547    0.0000 C   0  0  0  0  0  0  0  0  0  0  0  0
    3.4468    3.4422    0.0000 C   0  0  0  0  0  0  0  0  0  0  0  0
    4.1613    3.8547    0.0000 C   0  0  0  0  0  0  0  0  0  0  0  0
    4.8757    3.4422    0.0000 C   0  0  0  0  0  0  0  0  0  0  0  0
    5.5902    3.8547    0.0000 C   0  0  0  0  0  0  0  0  0  0  0  0
    5.5902    4.6797    0.0000 O   0  0  0  0  0  0  0  0  0  0  0  0
    6.3047    3.4422    0.0000 N   0  0  0  0  0  0  0  0  0  0  0  0
    7.0191    3.8547    0.0000 O   0  0  0  0  0  0  0  0  0  0  0  0
   -0.9263    2.6217    0.0000 N   0  0  0  0  0  0  0  0  0  0  0  0
   -1.7332    2.4502    0.0000 N   0  0  0  0  0  0  0  0  0  0  0  0
   -2.1457    3.1647    0.0000 C   0  0  0  0  0  0  0  0  0  0  0  0
   -2.9527    3.3362    0.0000 C   0  0  0  0  0  0  0  0  0  0  0  0
   -4.5667    3.6792    0.0000 C   0  0  0  0  0  0  0  0  0  0  0  0
   -5.3736    3.8508    0.0000 C   0  0  0  0  0  0  0  0  0  0  0  0
   -5.9257    3.2377    0.0000 O   0  0  0  0  0  0  0  0  0  0  0  0
   -6.7326    3.4092    0.0000 C   0  0  0  0  0  0  0  0  0  0  0  0
  1  2  1  0  0  0  0
  2  3  1  0  0  0  0
  3  4  4  0  0  0  0
  4  5  4  0  0  0  0
  5  6  4  0  0  0  0
  6  7  1  0  0  0  0
  7  8  4  0  0  0  0
  8  9  4  0  0  0  0
  9 10  4  0  0  0  0
 10 11  4  0  0  0  0
 11 12  1  0  0  0  0
 12 13  1  0  0  0  0
 13 14  2  0  0  0  0
 13 15  1  0  0  0  0
 15 16  1  0  0  0  0
 16 17  1  0  0  0  0
 17 18  1  0  0  0  0
 18 19  1  0  0  0  0
 19 20  1  0  0  0  0
 20 21  1  0  0  0  0
 21 22  2  0  0  0  0
 21 23  1  0  0  0  0
 23 24  1  0  0  0  0
 11 25  4  0  0  0  0
 25 26  4  0  0  0  0
 26 27  4  0  0  0  0
 10 27  4  0  0  0  0
 27 28  4  0  0  0  0
  7 28  4  0  0  0  0
  6 29  4  0  0  0  0
 29 30  4  0  0  0  0
  3 30  4  0  0  0  0
 30 31  1  0  0  0  0
 31 32  1  0  0  0  0
M  STY  1   1 DAT
M  SAL   1  1  26
M  SDT   1 MRV_IMPLICIT_H                                        
M  SDD   1     0.5304   -0.4125    DR    ALL  0       0  
M  SED   1 IMPL_H1
M  END
>  <Molecule ChEMBL ID>
CHEMBL4793650

>  <Compound Key>
15f

>  <Document ChEMBL ID>
CHEMBL4765277

>  <HDAC1>
1

$$$$

  Mrv1808 03272221002D          

 29 31  0  0  0  0            999 V2000
    8.4023    0.2439    0.0000 O   0  0  0  0  0  0  0  0  0  0  0  0
    8.4023   -0.5811    0.0000 C   0  0  0  0  0  0  0  0  0  0  0  0
    7.6879   -0.9936    0.0000 C   0  0  0  0  0  0  0  0  0  0  0  0
    6.9734   -0.5811    0.0000 C   0  0  0  0  0  0  0  0  0  0  0  0
    6.2589   -0.9936    0.0000 C   0  0  0  0  0  0  0  0  0  0  0  0
    5.5445   -0.5811    0.0000 C   0  0  0  0  0  0  0  0  0  0  0  0
    4.8300   -0.9936    0.0000 C   0  0  0  0  0  0  0  0  0  0  0  0
    4.1155   -0.5811    0.0000 C   0  0  0  0  0  0  0  0  0  0  0  0
    3.4010   -0.9936    0.0000 C   0  0  0  0  0  0  0  0  0  0  0  0
    3.4010   -1.8186    0.0000 O   0  0  0  0  0  0  0  0  0  0  0  0
    2.6866   -0.5811    0.0000 N   0  0  0  0  0  0  0  0  0  0  0  0
    1.9721   -0.9936    0.0000 C   0  0  0  0  0  0  0  0  0  0  0  0
    1.8859   -1.8141    0.0000 N   0  0  0  0  0  0  0  0  0  0  0  0
    1.0789   -1.9856    0.0000 N   0  0  0  0  0  0  0  0  0  0  0  0
    0.6664   -1.2711    0.0000 C   0  0  0  0  0  0  0  0  0  0  0  0
   -0.1406   -1.0996    0.0000 C   0  0  0  0  0  0  0  0  0  0  0  0
   -0.3955   -0.3150    0.0000 C   0  0  0  0  0  0  0  0  0  0  0  0
   -1.2025   -0.1435    0.0000 C   0  0  0  0  0  0  0  0  0  0  0  0
   -1.7545   -0.7566    0.0000 C   0  0  0  0  0  0  0  0  0  0  0  0
   -2.5615   -0.5850    0.0000 C   0  0  0  0  0  0  0  0  0  0  0  0
   -2.8164    0.1996    0.0000 C   0  0  0  0  0  0  0  0  0  0  0  0
   -2.2644    0.8127    0.0000 C   0  0  0  0  0  0  0  0  0  0  0  0
   -2.5193    1.5973    0.0000 Cl  0  0  0  0  0  0  0  0  0  0  0  0
   -1.4574    0.6412    0.0000 C   0  0  0  0  0  0  0  0  0  0  0  0
    0.1565    0.2981    0.0000 C   0  0  0  0  0  0  0  0  0  0  0  0
    0.9635    0.1266    0.0000 C   0  0  0  0  0  0  0  0  0  0  0  0
    1.2184   -0.6580    0.0000 C   0  0  0  0  0  0  0  0  0  0  0  0
    9.1168   -0.9936    0.0000 N   0  0  0  0  0  0  0  0  0  0  0  0
    9.8313   -0.5811    0.0000 O   0  0  0  0  0  0  0  0  0  0  0  0
  1  2  2  0  0  0  0
  2  3  1  0  0  0  0
  3  4  1  0  0  0  0
  4  5  1  0  0  0  0
  5  6  1  0  0  0  0
  6  7  1  0  0  0  0
  7  8  1  0  0  0  0
  8  9  1  0  0  0  0
  9 10  2  0  0  0  0
  9 11  1  0  0  0  0
 11 12  1  0  0  0  0
 12 13  4  0  0  0  0
 13 14  4  0  0  0  0
 14 15  4  0  0  0  0
 15 16  4  0  0  0  0
 16 17  4  0  0  0  0
 17 18  1  0  0  0  0
 18 19  4  0  0  0  0
 19 20  4  0  0  0  0
 20 21  4  0  0  0  0
 21 22  4  0  0  0  0
 22 23  1  0  0  0  0
 22 24  4  0  0  0  0
 18 24  4  0  0  0  0
 17 25  4  0  0  0  0
 25 26  4  0  0  0  0
 26 27  4  0  0  0  0
 12 27  4  0  0  0  0
 15 27  4  0  0  0  0
  2 28  1  0  0  0  0
 28 29  1  0  0  0  0
M  STY  1   1 DAT
M  SAL   1  1  14
M  SDT   1 MRV_IMPLICIT_H                                        
M  SDD   1     0.5304   -0.4125    DR    ALL  0       0  
M  SED   1 IMPL_H1
M  END
>  <Molecule ChEMBL ID>
CHEMBL4792980

>  <Compound Key>
15d

>  <Document ChEMBL ID>
CHEMBL4765277

>  <HDAC1>
1

$$$$

  Mrv1808 03272221002D          

 28 31  0  0  0  0            999 V2000
    0.8838   -2.1500    0.0000 C   0  0  0  0  0  0  0  0  0  0  0  0
    1.1387   -1.3654    0.0000 N   0  0  0  0  0  0  0  0  0  0  0  0
    0.6538   -0.6979    0.0000 C   0  0  0  0  0  0  0  0  0  0  0  0
    1.1387   -0.0305    0.0000 C   0  0  0  0  0  0  0  0  0  0  0  0
    0.8838    0.7541    0.0000 C   0  0  0  0  0  0  0  0  0  0  0  0
    0.0768    0.9256    0.0000 C   0  0  0  0  0  0  0  0  0  0  0  0
   -0.1781    1.7103    0.0000 N   0  0  0  0  0  0  0  0  0  0  0  0
   -0.9628    1.9652    0.0000 C   0  0  0  0  0  0  0  0  0  0  0  0
   -0.9628    2.7902    0.0000 C   0  0  0  0  0  0  0  0  0  0  0  0
   -0.1781    3.0451    0.0000 N   0  0  0  0  0  0  0  0  0  0  0  0
    0.0768    3.8298    0.0000 C   0  0  0  0  0  0  0  0  0  0  0  0
   -0.4752    4.4429    0.0000 C   0  0  0  0  0  0  0  0  0  0  0  0
   -0.2203    5.2275    0.0000 C   0  0  0  0  0  0  0  0  0  0  0  0
    0.5867    5.3990    0.0000 C   0  0  0  0  0  0  0  0  0  0  0  0
    0.8416    6.1836    0.0000 C   0  0  0  0  0  0  0  0  0  0  0  0
    0.2896    6.7967    0.0000 O   0  0  0  0  0  0  0  0  0  0  0  0
    1.6486    6.3552    0.0000 N   0  0  0  0  0  0  0  0  0  0  0  0
    1.9035    7.1398    0.0000 O   0  0  0  0  0  0  0  0  0  0  0  0
    1.1387    4.7859    0.0000 C   0  0  0  0  0  0  0  0  0  0  0  0
    0.8838    4.0013    0.0000 C   0  0  0  0  0  0  0  0  0  0  0  0
    0.3068    2.3777    0.0000 C   0  0  0  0  0  0  0  0  0  0  0  0
    1.1318    2.3777    0.0000 O   0  0  0  0  0  0  0  0  0  0  0  0
    1.9233   -0.2854    0.0000 C   0  0  0  0  0  0  0  0  0  0  0  0
    2.6378    0.1271    0.0000 C   0  0  0  0  0  0  0  0  0  0  0  0
    3.3523   -0.2854    0.0000 C   0  0  0  0  0  0  0  0  0  0  0  0
    3.3523   -1.1104    0.0000 C   0  0  0  0  0  0  0  0  0  0  0  0
    2.6378   -1.5229    0.0000 C   0  0  0  0  0  0  0  0  0  0  0  0
    1.9233   -1.1104    0.0000 C   0  0  0  0  0  0  0  0  0  0  0  0
  1  2  1  0  0  0  0
  2  3  4  0  0  0  0
  3  4  4  0  0  0  0
  4  5  1  0  0  0  0
  5  6  1  0  0  0  0
  6  7  1  0  0  0  0
  7  8  1  0  0  0  0
  8  9  1  0  0  0  0
  9 10  1  0  0  0  0
 10 11  1  0  0  0  0
 11 12  4  0  0  0  0
 12 13  4  0  0  0  0
 13 14  4  0  0  0  0
 14 15  1  0  0  0  0
 15 16  2  0  0  0  0
 15 17  1  0  0  0  0
 17 18  1  0  0  0  0
 14 19  4  0  0  0  0
 19 20  4  0  0  0  0
 11 20  4  0  0  0  0
 10 21  1  0  0  0  0
  7 21  1  0  0  0  0
 21 22  2  0  0  0  0
  4 23  4  0  0  0  0
 23 24  4  0  0  0  0
 24 25  4  0  0  0  0
 25 26  4  0  0  0  0
 26 27  4  0  0  0  0
 27 28  4  0  0  0  0
 23 28  4  0  0  0  0
  2 28  4  0  0  0  0
M  END
>  <Molecule ChEMBL ID>
CHEMBL3335008

>  <Compound Key>
1q

>  <Document ChEMBL ID>
CHEMBL3351615

>  <HDAC1>
1

$$$$

  Mrv1808 03272221002D          

 27 29  0  0  0  0            999 V2000
   -0.7145   -6.1875    0.0000 O   0  0  0  0  0  0  0  0  0  0  0  0
   -0.7145   -5.3625    0.0000 C   0  0  0  0  0  0  0  0  0  0  0  0
    0.0000   -4.9500    0.0000 C   0  0  0  0  0  0  0  0  0  0  0  0
    0.0000   -4.1250    0.0000 C   0  0  0  0  0  0  0  0  0  0  0  0
    0.7145   -3.7125    0.0000 C   0  0  0  0  0  0  0  0  0  0  0  0
    0.7145   -2.8875    0.0000 C   0  0  0  0  0  0  0  0  0  0  0  0
    1.4289   -2.4750    0.0000 C   0  0  0  0  0  0  0  0  0  0  0  0
    2.1434   -2.8875    0.0000 C   0  0  0  0  0  0  0  0  0  0  0  0
    2.8579   -2.4750    0.0000 C   0  0  0  0  0  0  0  0  0  0  0  0
    3.5724   -2.8875    0.0000 C   0  0  0  0  0  0  0  0  0  0  0  0
    4.2868   -2.4750    0.0000 N   0  0  0  0  0  0  0  0  0  0  0  0
    5.0013   -2.8875    0.0000 C   0  0  0  0  0  0  0  0  0  0  0  0
    5.0013   -3.7125    0.0000 O   0  0  0  0  0  0  0  0  0  0  0  0
    5.7158   -2.4750    0.0000 C   0  0  0  0  0  0  0  0  0  0  0  0
    5.7158   -1.6500    0.0000 C   0  0  0  0  0  0  0  0  0  0  0  0
    6.4302   -1.2375    0.0000 C   0  0  0  0  0  0  0  0  0  0  0  0
    7.1447   -1.6500    0.0000 C   0  0  0  0  0  0  0  0  0  0  0  0
    7.8592   -1.2375    0.0000 N   0  0  0  0  0  0  0  0  0  0  0  0
    8.5737   -1.6500    0.0000 C   0  0  0  0  0  0  0  0  0  0  0  0
    8.5737   -2.4750    0.0000 C   0  0  0  0  0  0  0  0  0  0  0  0
    7.8592   -2.8875    0.0000 C   0  0  0  0  0  0  0  0  0  0  0  0
    7.1447   -2.4750    0.0000 C   0  0  0  0  0  0  0  0  0  0  0  0
    6.4302   -2.8875    0.0000 C   0  0  0  0  0  0  0  0  0  0  0  0
    2.1434   -3.7125    0.0000 C   0  0  0  0  0  0  0  0  0  0  0  0
    1.4289   -4.1250    0.0000 C   0  0  0  0  0  0  0  0  0  0  0  0
   -1.4289   -4.9500    0.0000 N   0  0  0  0  0  0  0  0  0  0  0  0
   -2.1434   -5.3625    0.0000 O   0  0  0  0  0  0  0  0  0  0  0  0
  1  2  2  0  0  0  0
  2  3  1  0  0  0  0
  3  4  2  0  0  0  0
  4  5  1  0  0  0  0
  5  6  4  0  0  0  0
  6  7  4  0  0  0  0
  7  8  4  0  0  0  0
  8  9  1  0  0  0  0
  9 10  1  0  0  0  0
 10 11  1  0  0  0  0
 11 12  1  0  0  0  0
 12 13  2  0  0  0  0
 12 14  1  0  0  0  0
 14 15  4  0  0  0  0
 15 16  4  0  0  0  0
 16 17  4  0  0  0  0
 17 18  4  0  0  0  0
 18 19  4  0  0  0  0
 19 20  4  0  0  0  0
 20 21  4  0  0  0  0
 21 22  4  0  0  0  0
 17 22  4  0  0  0  0
 22 23  4  0  0  0  0
 14 23  4  0  0  0  0
  8 24  4  0  0  0  0
 24 25  4  0  0  0  0
  5 25  4  0  0  0  0
  2 26  1  0  0  0  0
 26 27  1  0  0  0  0
M  END
>  <Molecule ChEMBL ID>
CHEMBL4069152

>  <Compound Key>
15f

>  <Document ChEMBL ID>
CHEMBL4033641

>  <HDAC1>
1

$$$$

  Mrv1808 03272221002D          

 32 34  0  0  0  0            999 V2000
   -6.7326    3.4092    0.0000 C   0  0  0  0  0  0  0  0  0  0  0  0
   -5.9257    3.2377    0.0000 O   0  0  0  0  0  0  0  0  0  0  0  0
   -5.3736    3.8508    0.0000 C   0  0  0  0  0  0  0  0  0  0  0  0
   -5.6286    4.6354    0.0000 C   0  0  0  0  0  0  0  0  0  0  0  0
   -5.0765    5.2485    0.0000 C   0  0  0  0  0  0  0  0  0  0  0  0
   -5.3315    6.0331    0.0000 O   0  0  0  0  0  0  0  0  0  0  0  0
   -4.7794    6.6462    0.0000 C   0  0  0  0  0  0  0  0  0  0  0  0
   -4.2696    5.0769    0.0000 C   0  0  0  0  0  0  0  0  0  0  0  0
   -4.0146    4.2923    0.0000 C   0  0  0  0  0  0  0  0  0  0  0  0
   -3.2077    4.1208    0.0000 C   0  0  0  0  0  0  0  0  0  0  0  0
   -2.6556    4.7339    0.0000 C   0  0  0  0  0  0  0  0  0  0  0  0
   -1.8487    4.5624    0.0000 C   0  0  0  0  0  0  0  0  0  0  0  0
   -1.5937    3.7777    0.0000 C   0  0  0  0  0  0  0  0  0  0  0  0
   -0.8400    3.4422    0.0000 C   0  0  0  0  0  0  0  0  0  0  0  0
   -0.1256    3.8547    0.0000 N   0  0  0  0  0  0  0  0  0  0  0  0
    0.5889    3.4422    0.0000 C   0  0  0  0  0  0  0  0  0  0  0  0
    0.5889    2.6172    0.0000 O   0  0  0  0  0  0  0  0  0  0  0  0
    1.3034    3.8547    0.0000 C   0  0  0  0  0  0  0  0  0  0  0  0
    2.0178    3.4422    0.0000 C   0  0  0  0  0  0  0  0  0  0  0  0
    2.7323    3.8547    0.0000 C   0  0  0  0  0  0  0  0  0  0  0  0
    3.4468    3.4422    0.0000 C   0  0  0  0  0  0  0  0  0  0  0  0
    4.1613    3.8547    0.0000 C   0  0  0  0  0  0  0  0  0  0  0  0
    4.8757    3.4422    0.0000 C   0  0  0  0  0  0  0  0  0  0  0  0
    5.5902    3.8547    0.0000 C   0  0  0  0  0  0  0  0  0  0  0  0
    5.5902    4.6797    0.0000 O   0  0  0  0  0  0  0  0  0  0  0  0
    6.3047    3.4422    0.0000 N   0  0  0  0  0  0  0  0  0  0  0  0
    7.0191    3.8547    0.0000 O   0  0  0  0  0  0  0  0  0  0  0  0
   -0.9263    2.6217    0.0000 N   0  0  0  0  0  0  0  0  0  0  0  0
   -1.7332    2.4502    0.0000 N   0  0  0  0  0  0  0  0  0  0  0  0
   -2.1457    3.1647    0.0000 C   0  0  0  0  0  0  0  0  0  0  0  0
   -2.9527    3.3362    0.0000 C   0  0  0  0  0  0  0  0  0  0  0  0
   -4.5667    3.6792    0.0000 C   0  0  0  0  0  0  0  0  0  0  0  0
  1  2  1  0  0  0  0
  2  3  1  0  0  0  0
  3  4  4  0  0  0  0
  4  5  4  0  0  0  0
  5  6  1  0  0  0  0
  6  7  1  0  0  0  0
  5  8  4  0  0  0  0
  8  9  4  0  0  0  0
  9 10  1  0  0  0  0
 10 11  4  0  0  0  0
 11 12  4  0  0  0  0
 12 13  4  0  0  0  0
 13 14  4  0  0  0  0
 14 15  1  0  0  0  0
 15 16  1  0  0  0  0
 16 17  2  0  0  0  0
 16 18  1  0  0  0  0
 18 19  1  0  0  0  0
 19 20  1  0  0  0  0
 20 21  1  0  0  0  0
 21 22  1  0  0  0  0
 22 23  1  0  0  0  0
 23 24  1  0  0  0  0
 24 25  2  0  0  0  0
 24 26  1  0  0  0  0
 26 27  1  0  0  0  0
 14 28  4  0  0  0  0
 28 29  4  0  0  0  0
 29 30  4  0  0  0  0
 13 30  4  0  0  0  0
 30 31  4  0  0  0  0
 10 31  4  0  0  0  0
  9 32  4  0  0  0  0
  3 32  4  0  0  0  0
M  STY  1   1 DAT
M  SAL   1  1  29
M  SDT   1 MRV_IMPLICIT_H                                        
M  SDD   1     0.5304   -0.4125    DR    ALL  0       0  
M  SED   1 IMPL_H1
M  END
>  <Molecule ChEMBL ID>
CHEMBL4788942

>  <Compound Key>
15n

>  <Document ChEMBL ID>
CHEMBL4765277

>  <HDAC1>
1

$$$$

  Mrv1808 03272221002D          

 30 32  0  0  0  0            999 V2000
   -4.8638    2.2815    0.0000 C   0  0  0  0  0  0  0  0  0  0  0  0
   -4.3117    2.8946    0.0000 O   0  0  0  0  0  0  0  0  0  0  0  0
   -4.5667    3.6792    0.0000 C   0  0  0  0  0  0  0  0  0  0  0  0
   -5.3736    3.8508    0.0000 C   0  0  0  0  0  0  0  0  0  0  0  0
   -5.6286    4.6354    0.0000 C   0  0  0  0  0  0  0  0  0  0  0  0
   -5.0765    5.2485    0.0000 C   0  0  0  0  0  0  0  0  0  0  0  0
   -4.2696    5.0769    0.0000 C   0  0  0  0  0  0  0  0  0  0  0  0
   -4.0146    4.2923    0.0000 C   0  0  0  0  0  0  0  0  0  0  0  0
   -3.2077    4.1208    0.0000 C   0  0  0  0  0  0  0  0  0  0  0  0
   -2.6556    4.7339    0.0000 C   0  0  0  0  0  0  0  0  0  0  0  0
   -1.8487    4.5624    0.0000 C   0  0  0  0  0  0  0  0  0  0  0  0
   -1.5937    3.7777    0.0000 C   0  0  0  0  0  0  0  0  0  0  0  0
   -0.8400    3.4422    0.0000 C   0  0  0  0  0  0  0  0  0  0  0  0
   -0.1256    3.8547    0.0000 N   0  0  0  0  0  0  0  0  0  0  0  0
    0.5889    3.4422    0.0000 C   0  0  0  0  0  0  0  0  0  0  0  0
    0.5889    2.6172    0.0000 O   0  0  0  0  0  0  0  0  0  0  0  0
    1.3034    3.8547    0.0000 C   0  0  0  0  0  0  0  0  0  0  0  0
    2.0178    3.4422    0.0000 C   0  0  0  0  0  0  0  0  0  0  0  0
    2.7323    3.8547    0.0000 C   0  0  0  0  0  0  0  0  0  0  0  0
    3.4468    3.4422    0.0000 C   0  0  0  0  0  0  0  0  0  0  0  0
    4.1613    3.8547    0.0000 C   0  0  0  0  0  0  0  0  0  0  0  0
    4.8757    3.4422    0.0000 C   0  0  0  0  0  0  0  0  0  0  0  0
    5.5902    3.8547    0.0000 C   0  0  0  0  0  0  0  0  0  0  0  0
    5.5902    4.6797    0.0000 O   0  0  0  0  0  0  0  0  0  0  0  0
    6.3047    3.4422    0.0000 N   0  0  0  0  0  0  0  0  0  0  0  0
    7.0191    3.8547    0.0000 O   0  0  0  0  0  0  0  0  0  0  0  0
   -0.9263    2.6217    0.0000 N   0  0  0  0  0  0  0  0  0  0  0  0
   -1.7332    2.4502    0.0000 N   0  0  0  0  0  0  0  0  0  0  0  0
   -2.1457    3.1647    0.0000 C   0  0  0  0  0  0  0  0  0  0  0  0
   -2.9527    3.3362    0.0000 C   0  0  0  0  0  0  0  0  0  0  0  0
  1  2  1  0  0  0  0
  2  3  1  0  0  0  0
  3  4  4  0  0  0  0
  4  5  4  0  0  0  0
  5  6  4  0  0  0  0
  6  7  4  0  0  0  0
  7  8  4  0  0  0  0
  3  8  4  0  0  0  0
  8  9  1  0  0  0  0
  9 10  4  0  0  0  0
 10 11  4  0  0  0  0
 11 12  4  0  0  0  0
 12 13  4  0  0  0  0
 13 14  1  0  0  0  0
 14 15  1  0  0  0  0
 15 16  2  0  0  0  0
 15 17  1  0  0  0  0
 17 18  1  0  0  0  0
 18 19  1  0  0  0  0
 19 20  1  0  0  0  0
 20 21  1  0  0  0  0
 21 22  1  0  0  0  0
 22 23  1  0  0  0  0
 23 24  2  0  0  0  0
 23 25  1  0  0  0  0
 25 26  1  0  0  0  0
 13 27  4  0  0  0  0
 27 28  4  0  0  0  0
 28 29  4  0  0  0  0
 12 29  4  0  0  0  0
 29 30  4  0  0  0  0
  9 30  4  0  0  0  0
M  STY  1   1 DAT
M  SAL   1  1  28
M  SDT   1 MRV_IMPLICIT_H                                        
M  SDD   1     0.5304   -0.4125    DR    ALL  0       0  
M  SED   1 IMPL_H1
M  END
>  <Molecule ChEMBL ID>
CHEMBL4786063

>  <Compound Key>
15j

>  <Document ChEMBL ID>
CHEMBL4765277

>  <HDAC1>
1

$$$$

  Mrv1808 03272221002D          

 36 40  0  0  0  0            999 V2000
   11.7499    0.6751    0.0000 O   0  0  0  0  0  0  0  0  0  0  0  0
   11.7499   -0.1499    0.0000 C   0  0  0  0  0  0  0  0  0  0  0  0
   11.0354   -0.5624    0.0000 C   0  0  0  0  0  0  0  0  0  0  0  0
   10.3209   -0.1499    0.0000 C   0  0  0  0  0  0  0  0  0  0  0  0
    9.6065   -0.5624    0.0000 C   0  0  0  0  0  0  0  0  0  0  0  0
    8.8920   -0.1499    0.0000 C   0  0  0  0  0  0  0  0  0  0  0  0
    8.1775   -0.5624    0.0000 C   0  0  0  0  0  0  0  0  0  0  0  0
    7.4630   -0.1499    0.0000 C   0  0  0  0  0  0  0  0  0  0  0  0
    6.7486   -0.5624    0.0000 N   0  0  0  0  0  0  0  0  0  0  0  0
    6.6623   -1.3829    0.0000 C   0  0  0  0  0  0  0  0  0  0  0  0
    5.8554   -1.5544    0.0000 C   0  0  0  0  0  0  0  0  0  0  0  0
    5.5198   -2.3081    0.0000 C   0  0  0  0  0  0  0  0  0  0  0  0
    6.0047   -2.9755    0.0000 C   0  0  0  0  0  0  0  0  0  0  0  0
    5.6692   -3.7292    0.0000 C   0  0  0  0  0  0  0  0  0  0  0  0
    4.8487   -3.8154    0.0000 C   0  0  0  0  0  0  0  0  0  0  0  0
    4.3638   -3.1480    0.0000 C   0  0  0  0  0  0  0  0  0  0  0  0
    3.5433   -3.2342    0.0000 N   0  0  0  0  0  0  0  0  0  0  0  0
    3.2077   -3.9879    0.0000 C   0  0  0  0  0  0  0  0  0  0  0  0
    3.6927   -4.6553    0.0000 C   0  0  0  0  0  0  0  0  0  0  0  0
    4.5131   -4.5691    0.0000 C   0  0  0  0  0  0  0  0  0  0  0  0
    4.9981   -5.2365    0.0000 C   0  0  0  0  0  0  0  0  0  0  0  0
    4.6625   -5.9902    0.0000 C   0  0  0  0  0  0  0  0  0  0  0  0
    3.8420   -6.0764    0.0000 C   0  0  0  0  0  0  0  0  0  0  0  0
    3.3571   -5.4090    0.0000 C   0  0  0  0  0  0  0  0  0  0  0  0
    2.5366   -5.4952    0.0000 N   0  0  0  0  0  0  0  0  0  0  0  0
    2.0517   -4.8278    0.0000 C   0  0  0  0  0  0  0  0  0  0  0  0
    1.2312   -4.9140    0.0000 C   0  0  0  0  0  0  0  0  0  0  0  0
    0.7463   -4.2466    0.0000 C   0  0  0  0  0  0  0  0  0  0  0  0
    1.0818   -3.4929    0.0000 C   0  0  0  0  0  0  0  0  0  0  0  0
    1.9023   -3.4067    0.0000 C   0  0  0  0  0  0  0  0  0  0  0  0
    2.3872   -4.0741    0.0000 C   0  0  0  0  0  0  0  0  0  0  0  0
    4.6993   -2.3943    0.0000 C   0  0  0  0  0  0  0  0  0  0  0  0
    5.4429   -0.8399    0.0000 N   0  0  0  0  0  0  0  0  0  0  0  0
    5.9949   -0.2268    0.0000 N   0  0  0  0  0  0  0  0  0  0  0  0
   12.4643   -0.5624    0.0000 N   0  0  0  0  0  0  0  0  0  0  0  0
   13.1788   -0.1499    0.0000 O   0  0  0  0  0  0  0  0  0  0  0  0
  1  2  2  0  0  0  0
  2  3  1  0  0  0  0
  3  4  1  0  0  0  0
  4  5  1  0  0  0  0
  5  6  1  0  0  0  0
  6  7  1  0  0  0  0
  7  8  1  0  0  0  0
  8  9  1  0  0  0  0
  9 10  4  0  0  0  0
 10 11  4  0  0  0  0
 11 12  1  0  0  0  0
 12 13  4  0  0  0  0
 13 14  4  0  0  0  0
 14 15  4  0  0  0  0
 15 16  4  0  0  0  0
 16 17  1  0  0  0  0
 17 18  1  0  0  0  0
 18 19  4  0  0  0  0
 19 20  4  0  0  0  0
 20 21  4  0  0  0  0
 21 22  4  0  0  0  0
 22 23  4  0  0  0  0
 23 24  4  0  0  0  0
 19 24  4  0  0  0  0
 24 25  4  0  0  0  0
 25 26  4  0  0  0  0
 26 27  4  0  0  0  0
 27 28  4  0  0  0  0
 28 29  4  0  0  0  0
 29 30  4  0  0  0  0
 30 31  4  0  0  0  0
 18 31  4  0  0  0  0
 26 31  4  0  0  0  0
 16 32  4  0  0  0  0
 12 32  4  0  0  0  0
 11 33  4  0  0  0  0
 33 34  4  0  0  0  0
  9 34  4  0  0  0  0
  2 35  1  0  0  0  0
 35 36  1  0  0  0  0
M  END
>  <Molecule ChEMBL ID>
CHEMBL4240694

>  <Compound Key>
8d

>  <Document ChEMBL ID>
CHEMBL4229424

>  <HDAC1>
1

$$$$

  Mrv1808 03272221002D          

 41 45  0  0  0  0            999 V2000
   -5.4548   -3.1249    0.0000 C   0  0  0  0  0  0  0  0  0  0  0  0
   -5.7903   -2.3712    0.0000 C   0  0  0  0  0  0  0  0  0  0  0  0
   -6.6108   -2.2850    0.0000 C   0  0  0  0  0  0  0  0  0  0  0  0
   -6.9463   -1.5313    0.0000 C   0  0  0  0  0  0  0  0  0  0  0  0
   -6.4614   -0.8639    0.0000 C   0  0  0  0  0  0  0  0  0  0  0  0
   -6.7970   -0.1102    0.0000 O   0  0  0  0  0  0  0  0  0  0  0  0
   -6.3121    0.5572    0.0000 C   0  0  0  0  0  0  0  0  0  0  0  0
   -6.6476    1.3109    0.0000 C   0  0  0  0  0  0  0  0  0  0  0  0
   -6.1627    1.9783    0.0000 C   0  0  0  0  0  0  0  0  0  0  0  0
   -5.3422    1.8921    0.0000 C   0  0  0  0  0  0  0  0  0  0  0  0
   -4.8573    2.5595    0.0000 N   0  0  0  0  0  0  0  0  0  0  0  0
   -5.1929    3.3132    0.0000 C   0  0  0  0  0  0  0  0  0  0  0  0
   -6.0133    3.3995    0.0000 N   0  0  0  0  0  0  0  0  0  0  0  0
   -6.3489    4.1531    0.0000 C   0  0  0  0  0  0  0  0  0  0  0  0
   -5.8640    4.8206    0.0000 N   0  0  0  0  0  0  0  0  0  0  0  0
   -5.0435    4.7343    0.0000 C   0  0  0  0  0  0  0  0  0  0  0  0
   -4.5586    5.4018    0.0000 C   0  0  0  0  0  0  0  0  0  0  0  0
   -3.7381    5.3155    0.0000 C   0  0  0  0  0  0  0  0  0  0  0  0
   -3.4025    4.5619    0.0000 C   0  0  0  0  0  0  0  0  0  0  0  0
   -2.5820    4.4756    0.0000 C   0  0  0  0  0  0  0  0  0  0  0  0
   -2.0300    5.0887    0.0000 C   0  0  0  0  0  0  0  0  0  0  0  0
   -1.2763    4.7532    0.0000 N   0  0  0  0  0  0  0  0  0  0  0  0
   -0.5619    5.1657    0.0000 C   0  0  0  0  0  0  0  0  0  0  0  0
    0.1526    4.7532    0.0000 C   0  0  0  0  0  0  0  0  0  0  0  0
    0.8671    5.1657    0.0000 C   0  0  0  0  0  0  0  0  0  0  0  0
    1.5815    4.7532    0.0000 C   0  0  0  0  0  0  0  0  0  0  0  0
    2.2960    5.1657    0.0000 C   0  0  0  0  0  0  0  0  0  0  0  0
    3.0105    4.7532    0.0000 C   0  0  0  0  0  0  0  0  0  0  0  0
    3.7250    5.1657    0.0000 C   0  0  0  0  0  0  0  0  0  0  0  0
    3.7250    5.9907    0.0000 O   0  0  0  0  0  0  0  0  0  0  0  0
    4.4394    4.7532    0.0000 N   0  0  0  0  0  0  0  0  0  0  0  0
    5.1539    5.1657    0.0000 O   0  0  0  0  0  0  0  0  0  0  0  0
   -1.3626    3.9327    0.0000 N   0  0  0  0  0  0  0  0  0  0  0  0
   -2.1695    3.7612    0.0000 N   0  0  0  0  0  0  0  0  0  0  0  0
   -3.8874    3.8944    0.0000 C   0  0  0  0  0  0  0  0  0  0  0  0
   -4.7079    3.9807    0.0000 C   0  0  0  0  0  0  0  0  0  0  0  0
   -5.0067    1.1384    0.0000 C   0  0  0  0  0  0  0  0  0  0  0  0
   -5.4916    0.4710    0.0000 C   0  0  0  0  0  0  0  0  0  0  0  0
   -5.1560   -0.2827    0.0000 C   0  0  0  0  0  0  0  0  0  0  0  0
   -5.6409   -0.9501    0.0000 C   0  0  0  0  0  0  0  0  0  0  0  0
   -5.3054   -1.7038    0.0000 N   0  0  0  0  0  0  0  0  0  0  0  0
  1  2  1  0  0  0  0
  2  3  4  0  0  0  0
  3  4  4  0  0  0  0
  4  5  4  0  0  0  0
  5  6  1  0  0  0  0
  6  7  1  0  0  0  0
  7  8  4  0  0  0  0
  8  9  4  0  0  0  0
  9 10  4  0  0  0  0
 10 11  1  0  0  0  0
 11 12  1  0  0  0  0
 12 13  4  0  0  0  0
 13 14  4  0  0  0  0
 14 15  4  0  0  0  0
 15 16  4  0  0  0  0
 16 17  4  0  0  0  0
 17 18  4  0  0  0  0
 18 19  4  0  0  0  0
 19 20  1  0  0  0  0
 20 21  4  0  0  0  0
 21 22  4  0  0  0  0
 22 23  1  0  0  0  0
 23 24  1  0  0  0  0
 24 25  1  0  0  0  0
 25 26  1  0  0  0  0
 26 27  1  0  0  0  0
 27 28  1  0  0  0  0
 28 29  1  0  0  0  0
 29 30  2  0  0  0  0
 29 31  1  0  0  0  0
 31 32  1  0  0  0  0
 22 33  4  0  0  0  0
 33 34  4  0  0  0  0
 20 34  4  0  0  0  0
 19 35  4  0  0  0  0
 35 36  4  0  0  0  0
 12 36  4  0  0  0  0
 16 36  4  0  0  0  0
 10 37  4  0  0  0  0
 37 38  4  0  0  0  0
  7 38  4  0  0  0  0
 38 39  1  0  0  0  0
  5 40  4  0  0  0  0
 40 41  4  0  0  0  0
  2 41  4  0  0  0  0
M  END
>  <Molecule ChEMBL ID>
CHEMBL3893822

>  <Compound Key>
9j

>  <Document ChEMBL ID>
CHEMBL3870325

>  <HDAC1>
1

$$$$

  Mrv1808 03272221002D          

 27 30  0  0  0  0            999 V2000
   -2.3414   -6.9804    0.0000 O   0  0  0  0  0  0  0  0  0  0  0  0
   -1.5210   -6.8942    0.0000 C   0  0  0  0  0  0  0  0  0  0  0  0
   -1.0360   -7.5616    0.0000 N   0  0  0  0  0  0  0  0  0  0  0  0
   -1.3716   -8.3153    0.0000 O   0  0  0  0  0  0  0  0  0  0  0  0
   -1.1854   -6.1405    0.0000 C   0  0  0  0  0  0  0  0  0  0  0  0
   -1.6703   -5.4731    0.0000 C   0  0  0  0  0  0  0  0  0  0  0  0
   -1.3348   -4.7194    0.0000 C   0  0  0  0  0  0  0  0  0  0  0  0
   -0.5143   -4.6332    0.0000 C   0  0  0  0  0  0  0  0  0  0  0  0
   -0.1787   -3.8795    0.0000 N   0  0  0  0  0  0  0  0  0  0  0  0
   -0.5912   -3.1650    0.0000 C   0  0  0  0  0  0  0  0  0  0  0  0
   -0.0392   -2.5519    0.0000 C   0  0  0  0  0  0  0  0  0  0  0  0
    0.7145   -2.8875    0.0000 N   0  0  0  0  0  0  0  0  0  0  0  0
    1.4289   -2.4750    0.0000 C   0  0  0  0  0  0  0  0  0  0  0  0
    1.4289   -1.6500    0.0000 C   0  0  0  0  0  0  0  0  0  0  0  0
    0.7145   -1.2375    0.0000 C   0  0  0  0  0  0  0  0  0  0  0  0
    0.7145   -0.4125    0.0000 C   0  0  0  0  0  0  0  0  0  0  0  0
    1.4289    0.0000    0.0000 C   0  0  0  0  0  0  0  0  0  0  0  0
    2.1434   -0.4125    0.0000 C   0  0  0  0  0  0  0  0  0  0  0  0
    2.8579    0.0000    0.0000 N   0  0  0  0  0  0  0  0  0  0  0  0
    3.5724   -0.4125    0.0000 C   0  0  0  0  0  0  0  0  0  0  0  0
    3.5724   -1.2375    0.0000 C   0  0  0  0  0  0  0  0  0  0  0  0
    2.8579   -1.6500    0.0000 C   0  0  0  0  0  0  0  0  0  0  0  0
    2.1434   -1.2375    0.0000 C   0  0  0  0  0  0  0  0  0  0  0  0
    0.6282   -3.7080    0.0000 C   0  0  0  0  0  0  0  0  0  0  0  0
    1.2413   -4.2600    0.0000 O   0  0  0  0  0  0  0  0  0  0  0  0
   -0.0294   -5.3006    0.0000 C   0  0  0  0  0  0  0  0  0  0  0  0
   -0.3649   -6.0543    0.0000 C   0  0  0  0  0  0  0  0  0  0  0  0
  1  2  2  0  0  0  0
  2  3  1  0  0  0  0
  3  4  1  0  0  0  0
  2  5  1  0  0  0  0
  5  6  4  0  0  0  0
  6  7  4  0  0  0  0
  7  8  4  0  0  0  0
  8  9  1  0  0  0  0
  9 10  1  0  0  0  0
 10 11  1  0  0  0  0
 11 12  1  0  0  0  0
 12 13  1  0  0  0  0
 13 14  1  0  0  0  0
 14 15  4  0  0  0  0
 15 16  4  0  0  0  0
 16 17  4  0  0  0  0
 17 18  4  0  0  0  0
 18 19  4  0  0  0  0
 19 20  4  0  0  0  0
 20 21  4  0  0  0  0
 21 22  4  0  0  0  0
 22 23  4  0  0  0  0
 14 23  4  0  0  0  0
 18 23  4  0  0  0  0
 12 24  1  0  0  0  0
  9 24  1  0  0  0  0
 24 25  2  0  0  0  0
  8 26  4  0  0  0  0
 26 27  4  0  0  0  0
  5 27  4  0  0  0  0
M  END
>  <Molecule ChEMBL ID>
CHEMBL3335005

>  <Compound Key>
1n

>  <Document ChEMBL ID>
CHEMBL3351615

>  <HDAC1>
1

$$$$

  Mrv1808 03272221002D          

 27 30  0  0  0  0            999 V2000
    2.0166   -7.1680    0.0000 O   0  0  0  0  0  0  0  0  0  0  0  0
    2.3522   -6.4143    0.0000 C   0  0  0  0  0  0  0  0  0  0  0  0
    3.1727   -6.3281    0.0000 N   0  0  0  0  0  0  0  0  0  0  0  0
    3.6576   -6.9955    0.0000 O   0  0  0  0  0  0  0  0  0  0  0  0
    1.8673   -5.7469    0.0000 C   0  0  0  0  0  0  0  0  0  0  0  0
    1.0468   -5.8331    0.0000 C   0  0  0  0  0  0  0  0  0  0  0  0
    0.5619   -5.1657    0.0000 C   0  0  0  0  0  0  0  0  0  0  0  0
    0.8974   -4.4120    0.0000 C   0  0  0  0  0  0  0  0  0  0  0  0
    0.4125   -3.7445    0.0000 N   0  0  0  0  0  0  0  0  0  0  0  0
   -0.4125   -3.7445    0.0000 C   0  0  0  0  0  0  0  0  0  0  0  0
   -0.6674   -2.9599    0.0000 C   0  0  0  0  0  0  0  0  0  0  0  0
    0.0000   -2.4750    0.0000 N   0  0  0  0  0  0  0  0  0  0  0  0
    0.0000   -1.6500    0.0000 C   0  0  0  0  0  0  0  0  0  0  0  0
    0.7145   -1.2375    0.0000 C   0  0  0  0  0  0  0  0  0  0  0  0
    0.7145   -0.4125    0.0000 C   0  0  0  0  0  0  0  0  0  0  0  0
    1.4289    0.0000    0.0000 C   0  0  0  0  0  0  0  0  0  0  0  0
    2.1434   -0.4125    0.0000 C   0  0  0  0  0  0  0  0  0  0  0  0
    2.8579    0.0000    0.0000 C   0  0  0  0  0  0  0  0  0  0  0  0
    3.5724   -0.4125    0.0000 C   0  0  0  0  0  0  0  0  0  0  0  0
    3.5724   -1.2375    0.0000 C   0  0  0  0  0  0  0  0  0  0  0  0
    2.8579   -1.6500    0.0000 C   0  0  0  0  0  0  0  0  0  0  0  0
    2.1434   -1.2375    0.0000 C   0  0  0  0  0  0  0  0  0  0  0  0
    1.4289   -1.6500    0.0000 C   0  0  0  0  0  0  0  0  0  0  0  0
    0.6674   -2.9599    0.0000 C   0  0  0  0  0  0  0  0  0  0  0  0
    1.4521   -2.7050    0.0000 O   0  0  0  0  0  0  0  0  0  0  0  0
    1.7179   -4.3257    0.0000 C   0  0  0  0  0  0  0  0  0  0  0  0
    2.2028   -4.9932    0.0000 C   0  0  0  0  0  0  0  0  0  0  0  0
  1  2  2  0  0  0  0
  2  3  1  0  0  0  0
  3  4  1  0  0  0  0
  2  5  1  0  0  0  0
  5  6  4  0  0  0  0
  6  7  4  0  0  0  0
  7  8  4  0  0  0  0
  8  9  1  0  0  0  0
  9 10  1  0  0  0  0
 10 11  1  0  0  0  0
 11 12  1  0  0  0  0
 12 13  1  0  0  0  0
 13 14  1  0  0  0  0
 14 15  4  0  0  0  0
 15 16  4  0  0  0  0
 16 17  4  0  0  0  0
 17 18  4  0  0  0  0
 18 19  4  0  0  0  0
 19 20  4  0  0  0  0
 20 21  4  0  0  0  0
 21 22  4  0  0  0  0
 17 22  4  0  0  0  0
 22 23  4  0  0  0  0
 14 23  4  0  0  0  0
 12 24  1  0  0  0  0
  9 24  1  0  0  0  0
 24 25  2  0  0  0  0
  8 26  4  0  0  0  0
 26 27  4  0  0  0  0
  5 27  4  0  0  0  0
M  END
>  <Molecule ChEMBL ID>
CHEMBL3335004

>  <Compound Key>
1m

>  <Document ChEMBL ID>
CHEMBL3351615

>  <HDAC1>
1

$$$$

  Mrv1808 03272221002D          

 30 32  0  0  0  0            999 V2000
   -6.9876    4.1938    0.0000 C   0  0  0  0  0  0  0  0  0  0  0  0
   -6.4355    4.8069    0.0000 O   0  0  0  0  0  0  0  0  0  0  0  0
   -5.6286    4.6354    0.0000 C   0  0  0  0  0  0  0  0  0  0  0  0
   -5.0765    5.2485    0.0000 C   0  0  0  0  0  0  0  0  0  0  0  0
   -4.2696    5.0769    0.0000 C   0  0  0  0  0  0  0  0  0  0  0  0
   -4.0146    4.2923    0.0000 C   0  0  0  0  0  0  0  0  0  0  0  0
   -3.2077    4.1208    0.0000 C   0  0  0  0  0  0  0  0  0  0  0  0
   -2.6556    4.7339    0.0000 C   0  0  0  0  0  0  0  0  0  0  0  0
   -1.8487    4.5624    0.0000 C   0  0  0  0  0  0  0  0  0  0  0  0
   -1.5937    3.7777    0.0000 C   0  0  0  0  0  0  0  0  0  0  0  0
   -0.8400    3.4422    0.0000 C   0  0  0  0  0  0  0  0  0  0  0  0
   -0.1256    3.8547    0.0000 N   0  0  0  0  0  0  0  0  0  0  0  0
    0.5889    3.4422    0.0000 C   0  0  0  0  0  0  0  0  0  0  0  0
    0.5889    2.6172    0.0000 O   0  0  0  0  0  0  0  0  0  0  0  0
    1.3034    3.8547    0.0000 C   0  0  0  0  0  0  0  0  0  0  0  0
    2.0178    3.4422    0.0000 C   0  0  0  0  0  0  0  0  0  0  0  0
    2.7323    3.8547    0.0000 C   0  0  0  0  0  0  0  0  0  0  0  0
    3.4468    3.4422    0.0000 C   0  0  0  0  0  0  0  0  0  0  0  0
    4.1613    3.8547    0.0000 C   0  0  0  0  0  0  0  0  0  0  0  0
    4.8757    3.4422    0.0000 C   0  0  0  0  0  0  0  0  0  0  0  0
    5.5902    3.8547    0.0000 C   0  0  0  0  0  0  0  0  0  0  0  0
    5.5902    4.6797    0.0000 O   0  0  0  0  0  0  0  0  0  0  0  0
    6.3047    3.4422    0.0000 N   0  0  0  0  0  0  0  0  0  0  0  0
    7.0191    3.8547    0.0000 O   0  0  0  0  0  0  0  0  0  0  0  0
   -0.9263    2.6217    0.0000 N   0  0  0  0  0  0  0  0  0  0  0  0
   -1.7332    2.4502    0.0000 N   0  0  0  0  0  0  0  0  0  0  0  0
   -2.1457    3.1647    0.0000 C   0  0  0  0  0  0  0  0  0  0  0  0
   -2.9527    3.3362    0.0000 N   0  0  0  0  0  0  0  0  0  0  0  0
   -4.5667    3.6792    0.0000 C   0  0  0  0  0  0  0  0  0  0  0  0
   -5.3736    3.8508    0.0000 C   0  0  0  0  0  0  0  0  0  0  0  0
  1  2  1  0  0  0  0
  2  3  1  0  0  0  0
  3  4  4  0  0  0  0
  4  5  4  0  0  0  0
  5  6  4  0  0  0  0
  6  7  1  0  0  0  0
  7  8  4  0  0  0  0
  8  9  4  0  0  0  0
  9 10  4  0  0  0  0
 10 11  4  0  0  0  0
 11 12  1  0  0  0  0
 12 13  1  0  0  0  0
 13 14  2  0  0  0  0
 13 15  1  0  0  0  0
 15 16  1  0  0  0  0
 16 17  1  0  0  0  0
 17 18  1  0  0  0  0
 18 19  1  0  0  0  0
 19 20  1  0  0  0  0
 20 21  1  0  0  0  0
 21 22  2  0  0  0  0
 21 23  1  0  0  0  0
 23 24  1  0  0  0  0
 11 25  4  0  0  0  0
 25 26  4  0  0  0  0
 26 27  4  0  0  0  0
 10 27  4  0  0  0  0
 27 28  4  0  0  0  0
  7 28  4  0  0  0  0
  6 29  4  0  0  0  0
 29 30  4  0  0  0  0
  3 30  4  0  0  0  0
M  STY  1   1 DAT
M  SAL   1  1  26
M  SDT   1 MRV_IMPLICIT_H                                        
M  SDD   1     0.5304   -0.4125    DR    ALL  0       0  
M  SED   1 IMPL_H1
M  END
>  <Molecule ChEMBL ID>
CHEMBL4776599

>  <Compound Key>
21b

>  <Document ChEMBL ID>
CHEMBL4765277

>  <HDAC1>
1

$$$$

  Mrv1808 03272221002D          

 38 42  0  0  0  0            999 V2000
    6.9246    4.8229    0.0000 C   0  0  0  0  0  0  0  0  0  0  0  0
    6.2102    4.4104    0.0000 C   0  0  0  0  0  0  0  0  0  0  0  0
    6.2102    3.5854    0.0000 C   0  0  0  0  0  0  0  0  0  0  0  0
    5.4957    3.1729    0.0000 C   0  0  0  0  0  0  0  0  0  0  0  0
    5.4957    2.3479    0.0000 C   0  0  0  0  0  0  0  0  0  0  0  0
    4.7812    1.9354    0.0000 C   0  0  0  0  0  0  0  0  0  0  0  0
    4.0668    2.3479    0.0000 C   0  0  0  0  0  0  0  0  0  0  0  0
    3.3523    1.9354    0.0000 C   0  0  0  0  0  0  0  0  0  0  0  0
    3.3523    1.1104    0.0000 N   0  0  0  0  0  0  0  0  0  0  0  0
    2.6378    0.6979    0.0000 C   0  0  0  0  0  0  0  0  0  0  0  0
    2.6378   -0.1271    0.0000 N   0  0  0  0  0  0  0  0  0  0  0  0
    3.3523   -0.5396    0.0000 C   0  0  0  0  0  0  0  0  0  0  0  0
    3.3523   -1.3646    0.0000 C   0  0  0  0  0  0  0  0  0  0  0  0
    2.6378   -1.7771    0.0000 O   0  0  0  0  0  0  0  0  0  0  0  0
    1.9233   -1.3646    0.0000 C   0  0  0  0  0  0  0  0  0  0  0  0
    1.9233   -0.5396    0.0000 C   0  0  0  0  0  0  0  0  0  0  0  0
    1.9233    1.1104    0.0000 C   0  0  0  0  0  0  0  0  0  0  0  0
    1.1387    0.8555    0.0000 N   0  0  0  0  0  0  0  0  0  0  0  0
    0.6538    1.5229    0.0000 C   0  0  0  0  0  0  0  0  0  0  0  0
   -0.1712    1.5229    0.0000 C   0  0  0  0  0  0  0  0  0  0  0  0
   -0.5837    0.8085    0.0000 N   0  0  0  0  0  0  0  0  0  0  0  0
   -0.1712    0.0940    0.0000 C   0  0  0  0  0  0  0  0  0  0  0  0
   -1.4087    0.8085    0.0000 C   0  0  0  0  0  0  0  0  0  0  0  0
   -1.8212    0.0940    0.0000 N   0  0  0  0  0  0  0  0  0  0  0  0
   -2.6462    0.0940    0.0000 C   0  0  0  0  0  0  0  0  0  0  0  0
   -3.0587    0.8085    0.0000 C   0  0  0  0  0  0  0  0  0  0  0  0
   -3.8837    0.8085    0.0000 C   0  0  0  0  0  0  0  0  0  0  0  0
   -4.2962    0.0940    0.0000 O   0  0  0  0  0  0  0  0  0  0  0  0
   -4.2962    1.5229    0.0000 N   0  0  0  0  0  0  0  0  0  0  0  0
   -5.1212    1.5229    0.0000 O   0  0  0  0  0  0  0  0  0  0  0  0
   -2.6462    1.5229    0.0000 C   0  0  0  0  0  0  0  0  0  0  0  0
   -1.8212    1.5229    0.0000 N   0  0  0  0  0  0  0  0  0  0  0  0
    1.1387    2.1904    0.0000 N   0  0  0  0  0  0  0  0  0  0  0  0
    0.8838    2.9750    0.0000 C   0  0  0  0  0  0  0  0  0  0  0  0
    1.9233    1.9354    0.0000 C   0  0  0  0  0  0  0  0  0  0  0  0
    2.6378    2.3479    0.0000 N   0  0  0  0  0  0  0  0  0  0  0  0
    4.0668    3.1729    0.0000 C   0  0  0  0  0  0  0  0  0  0  0  0
    4.7812    3.5854    0.0000 C   0  0  0  0  0  0  0  0  0  0  0  0
  1  2  1  0  0  0  0
  2  3  1  0  0  0  0
  3  4  1  0  0  0  0
  4  5  4  0  0  0  0
  5  6  4  0  0  0  0
  6  7  4  0  0  0  0
  7  8  1  0  0  0  0
  8  9  4  0  0  0  0
  9 10  4  0  0  0  0
 10 11  1  0  0  0  0
 11 12  1  0  0  0  0
 12 13  1  0  0  0  0
 13 14  1  0  0  0  0
 14 15  1  0  0  0  0
 15 16  1  0  0  0  0
 11 16  1  0  0  0  0
 10 17  4  0  0  0  0
 17 18  4  0  0  0  0
 18 19  4  0  0  0  0
 19 20  1  0  0  0  0
 20 21  1  0  0  0  0
 21 22  1  0  0  0  0
 21 23  1  0  0  0  0
 23 24  4  0  0  0  0
 24 25  4  0  0  0  0
 25 26  4  0  0  0  0
 26 27  1  0  0  0  0
 27 28  2  0  0  0  0
 27 29  1  0  0  0  0
 29 30  1  0  0  0  0
 26 31  4  0  0  0  0
 31 32  4  0  0  0  0
 23 32  4  0  0  0  0
 19 33  4  0  0  0  0
 33 34  1  0  0  0  0
 33 35  4  0  0  0  0
 17 35  4  0  0  0  0
 35 36  4  0  0  0  0
  8 36  4  0  0  0  0
  7 37  4  0  0  0  0
 37 38  4  0  0  0  0
  4 38  4  0  0  0  0
M  END
>  <Molecule ChEMBL ID>
CHEMBL3827489

>  <Compound Key>
10m

>  <Document ChEMBL ID>
CHEMBL3826921

>  <HDAC1>
1

$$$$

  Mrv1808 03272221002D          

 33 36  0  0  0  0            999 V2000
    0.0000   -5.7750    0.0000 C   0  0  0  0  0  0  0  0  0  0  0  0
    0.0000   -4.9500    0.0000 C   0  0  0  0  0  0  0  0  0  0  0  0
    0.0000   -4.1250    0.0000 C   0  0  0  0  0  0  0  0  0  0  0  0
   -0.7145   -3.7125    0.0000 C   0  0  0  0  0  0  0  0  0  0  0  0
   -0.7145   -2.8875    0.0000 C   0  0  0  0  0  0  0  0  0  0  0  0
    0.0000   -2.4750    0.0000 C   0  0  0  0  0  0  0  0  0  0  0  0
    0.7145   -2.8875    0.0000 C   0  0  0  0  0  0  0  0  0  0  0  0
    1.4289   -2.4750    0.0000 N   0  0  0  0  0  0  0  0  0  0  0  0
    1.4289   -1.6500    0.0000 C   0  0  0  0  0  0  0  0  0  0  0  0
    0.7145   -1.2375    0.0000 N   0  0  0  0  0  0  0  0  0  0  0  0
    0.7145   -0.4125    0.0000 C   0  0  0  0  0  0  0  0  0  0  0  0
    1.4289    0.0000    0.0000 N   0  0  0  0  0  0  0  0  0  0  0  0
    2.1434   -0.4125    0.0000 C   0  0  0  0  0  0  0  0  0  0  0  0
    2.8579    0.0000    0.0000 C   0  0  0  0  0  0  0  0  0  0  0  0
    3.5724   -0.4125    0.0000 C   0  0  0  0  0  0  0  0  0  0  0  0
    3.5724   -1.2375    0.0000 C   0  0  0  0  0  0  0  0  0  0  0  0
    4.2868   -1.6500    0.0000 S   0  0  0  0  0  0  0  0  0  0  0  0
    3.8743   -2.3645    0.0000 O   0  0  0  0  0  0  0  0  0  0  0  0
    4.6993   -0.9355    0.0000 O   0  0  0  0  0  0  0  0  0  0  0  0
    5.0013   -2.0625    0.0000 N   0  0  0  0  0  0  0  0  0  0  0  0
    5.7550   -1.7269    0.0000 C   0  0  0  0  0  0  0  0  0  0  0  0
    6.3070   -2.3400    0.0000 C   0  0  0  0  0  0  0  0  0  0  0  0
    5.8945   -3.0545    0.0000 C   0  0  0  0  0  0  0  0  0  0  0  0
    6.2301   -3.8082    0.0000 C   0  0  0  0  0  0  0  0  0  0  0  0
    5.7451   -4.4756    0.0000 C   0  0  0  0  0  0  0  0  0  0  0  0
    6.0807   -5.2293    0.0000 C   0  0  0  0  0  0  0  0  0  0  0  0
    6.9012   -5.3155    0.0000 O   0  0  0  0  0  0  0  0  0  0  0  0
    5.5958   -5.8967    0.0000 N   0  0  0  0  0  0  0  0  0  0  0  0
    5.9313   -6.6504    0.0000 O   0  0  0  0  0  0  0  0  0  0  0  0
    5.0875   -2.8830    0.0000 C   0  0  0  0  0  0  0  0  0  0  0  0
    2.8579   -1.6500    0.0000 C   0  0  0  0  0  0  0  0  0  0  0  0
    2.1434   -1.2375    0.0000 C   0  0  0  0  0  0  0  0  0  0  0  0
    0.7145   -3.7125    0.0000 C   0  0  0  0  0  0  0  0  0  0  0  0
  1  2  3  0  0  0  0
  2  3  1  0  0  0  0
  3  4  4  0  0  0  0
  4  5  4  0  0  0  0
  5  6  4  0  0  0  0
  6  7  4  0  0  0  0
  7  8  1  0  0  0  0
  8  9  1  0  0  0  0
  9 10  4  0  0  0  0
 10 11  4  0  0  0  0
 11 12  4  0  0  0  0
 12 13  4  0  0  0  0
 13 14  4  0  0  0  0
 14 15  4  0  0  0  0
 15 16  4  0  0  0  0
 16 17  1  0  0  0  0
 17 18  2  0  0  0  0
 17 19  2  0  0  0  0
 17 20  1  0  0  0  0
 20 21  4  0  0  0  0
 21 22  4  0  0  0  0
 22 23  4  0  0  0  0
 23 24  1  0  0  0  0
 24 25  2  0  0  0  0
 25 26  1  0  0  0  0
 26 27  2  0  0  0  0
 26 28  1  0  0  0  0
 28 29  1  0  0  0  0
 23 30  4  0  0  0  0
 20 30  4  0  0  0  0
 16 31  4  0  0  0  0
 31 32  4  0  0  0  0
  9 32  4  0  0  0  0
 13 32  4  0  0  0  0
  7 33  4  0  0  0  0
  3 33  4  0  0  0  0
M  END
>  <Molecule ChEMBL ID>
CHEMBL3218002

>  <Compound Key>
11

>  <Document ChEMBL ID>
CHEMBL3217617

>  <HDAC1>
1

$$$$

  Mrv1808 03272221002D          

 40 44  0  0  0  0            999 V2000
   -9.8092    4.0916    0.0000 C   0  0  0  0  0  0  0  0  0  0  0  0
   -9.3243    4.7590    0.0000 C   0  0  0  0  0  0  0  0  0  0  0  0
   -9.6599    5.5127    0.0000 C   0  0  0  0  0  0  0  0  0  0  0  0
   -9.1750    6.1801    0.0000 C   0  0  0  0  0  0  0  0  0  0  0  0
   -8.3545    6.0939    0.0000 C   0  0  0  0  0  0  0  0  0  0  0  0
   -7.8696    6.7613    0.0000 O   0  0  0  0  0  0  0  0  0  0  0  0
   -7.0491    6.6751    0.0000 C   0  0  0  0  0  0  0  0  0  0  0  0
   -6.5641    7.3425    0.0000 C   0  0  0  0  0  0  0  0  0  0  0  0
   -5.7437    7.2563    0.0000 C   0  0  0  0  0  0  0  0  0  0  0  0
   -5.4081    6.5026    0.0000 C   0  0  0  0  0  0  0  0  0  0  0  0
   -4.5876    6.4164    0.0000 N   0  0  0  0  0  0  0  0  0  0  0  0
   -4.1027    7.0838    0.0000 C   0  0  0  0  0  0  0  0  0  0  0  0
   -4.4383    7.8375    0.0000 N   0  0  0  0  0  0  0  0  0  0  0  0
   -3.9533    8.5049    0.0000 C   0  0  0  0  0  0  0  0  0  0  0  0
   -3.1329    8.4187    0.0000 N   0  0  0  0  0  0  0  0  0  0  0  0
   -2.7973    7.6650    0.0000 C   0  0  0  0  0  0  0  0  0  0  0  0
   -1.9768    7.5788    0.0000 C   0  0  0  0  0  0  0  0  0  0  0  0
   -1.6413    6.8251    0.0000 C   0  0  0  0  0  0  0  0  0  0  0  0
   -2.1262    6.1577    0.0000 C   0  0  0  0  0  0  0  0  0  0  0  0
   -1.7906    5.4040    0.0000 C   0  0  0  0  0  0  0  0  0  0  0  0
   -0.9837    5.2325    0.0000 C   0  0  0  0  0  0  0  0  0  0  0  0
   -0.8974    4.4120    0.0000 N   0  0  0  0  0  0  0  0  0  0  0  0
   -0.1830    3.9995    0.0000 C   0  0  0  0  0  0  0  0  0  0  0  0
    0.5315    4.4120    0.0000 C   0  0  0  0  0  0  0  0  0  0  0  0
    1.2460    3.9995    0.0000 C   0  0  0  0  0  0  0  0  0  0  0  0
    1.9605    4.4120    0.0000 C   0  0  0  0  0  0  0  0  0  0  0  0
    2.6749    3.9995    0.0000 C   0  0  0  0  0  0  0  0  0  0  0  0
    3.3894    4.4120    0.0000 C   0  0  0  0  0  0  0  0  0  0  0  0
    3.3894    5.2370    0.0000 O   0  0  0  0  0  0  0  0  0  0  0  0
    4.1039    3.9995    0.0000 N   0  0  0  0  0  0  0  0  0  0  0  0
    4.8183    4.4120    0.0000 O   0  0  0  0  0  0  0  0  0  0  0  0
   -1.6511    4.0764    0.0000 N   0  0  0  0  0  0  0  0  0  0  0  0
   -2.2031    4.6895    0.0000 N   0  0  0  0  0  0  0  0  0  0  0  0
   -2.9467    6.2439    0.0000 C   0  0  0  0  0  0  0  0  0  0  0  0
   -3.2822    6.9976    0.0000 C   0  0  0  0  0  0  0  0  0  0  0  0
   -5.8930    5.8352    0.0000 C   0  0  0  0  0  0  0  0  0  0  0  0
   -6.7135    5.9214    0.0000 C   0  0  0  0  0  0  0  0  0  0  0  0
   -7.1984    5.2540    0.0000 C   0  0  0  0  0  0  0  0  0  0  0  0
   -8.0189    5.3402    0.0000 C   0  0  0  0  0  0  0  0  0  0  0  0
   -8.5038    4.6728    0.0000 N   0  0  0  0  0  0  0  0  0  0  0  0
  1  2  1  0  0  0  0
  2  3  4  0  0  0  0
  3  4  4  0  0  0  0
  4  5  4  0  0  0  0
  5  6  1  0  0  0  0
  6  7  1  0  0  0  0
  7  8  4  0  0  0  0
  8  9  4  0  0  0  0
  9 10  4  0  0  0  0
 10 11  1  0  0  0  0
 11 12  1  0  0  0  0
 12 13  4  0  0  0  0
 13 14  4  0  0  0  0
 14 15  4  0  0  0  0
 15 16  4  0  0  0  0
 16 17  4  0  0  0  0
 17 18  4  0  0  0  0
 18 19  4  0  0  0  0
 19 20  1  0  0  0  0
 20 21  4  0  0  0  0
 21 22  4  0  0  0  0
 22 23  1  0  0  0  0
 23 24  1  0  0  0  0
 24 25  1  0  0  0  0
 25 26  1  0  0  0  0
 26 27  1  0  0  0  0
 27 28  1  0  0  0  0
 28 29  2  0  0  0  0
 28 30  1  0  0  0  0
 30 31  1  0  0  0  0
 22 32  4  0  0  0  0
 32 33  4  0  0  0  0
 20 33  4  0  0  0  0
 19 34  4  0  0  0  0
 34 35  4  0  0  0  0
 12 35  4  0  0  0  0
 16 35  4  0  0  0  0
 10 36  4  0  0  0  0
 36 37  4  0  0  0  0
  7 37  4  0  0  0  0
 37 38  1  0  0  0  0
  5 39  4  0  0  0  0
 39 40  4  0  0  0  0
  2 40  4  0  0  0  0
M  END
>  <Molecule ChEMBL ID>
CHEMBL3930762

>  <Compound Key>
9i

>  <Document ChEMBL ID>
CHEMBL3870325

>  <HDAC1>
1

$$$$

  Mrv1808 03272221002D          

 26 28  0  0  0  0            999 V2000
   -4.2868   -5.7750    0.0000 O   0  0  0  0  0  0  0  0  0  0  0  0
   -4.2868   -4.9500    0.0000 C   0  0  0  0  0  0  0  0  0  0  0  0
   -3.5724   -4.5375    0.0000 C   0  0  0  0  0  0  0  0  0  0  0  0
   -3.5724   -3.7125    0.0000 C   0  0  0  0  0  0  0  0  0  0  0  0
   -2.8579   -3.3000    0.0000 C   0  0  0  0  0  0  0  0  0  0  0  0
   -2.8579   -2.4750    0.0000 C   0  0  0  0  0  0  0  0  0  0  0  0
   -2.1434   -2.0625    0.0000 C   0  0  0  0  0  0  0  0  0  0  0  0
   -1.4289   -2.4750    0.0000 C   0  0  0  0  0  0  0  0  0  0  0  0
   -0.7145   -2.0625    0.0000 C   0  0  0  0  0  0  0  0  0  0  0  0
    0.0000   -2.4750    0.0000 C   0  0  0  0  0  0  0  0  0  0  0  0
    0.7145   -2.0625    0.0000 N   0  0  0  0  0  0  0  0  0  0  0  0
    1.4289   -2.4750    0.0000 C   0  0  0  0  0  0  0  0  0  0  0  0
    1.4289   -3.3000    0.0000 O   0  0  0  0  0  0  0  0  0  0  0  0
    2.1434   -2.0625    0.0000 C   0  0  0  0  0  0  0  0  0  0  0  0
    2.1434   -1.2375    0.0000 C   0  0  0  0  0  0  0  0  0  0  0  0
    2.8579   -0.8250    0.0000 C   0  0  0  0  0  0  0  0  0  0  0  0
    3.5724   -1.2375    0.0000 C   0  0  0  0  0  0  0  0  0  0  0  0
    3.5724   -2.0625    0.0000 C   0  0  0  0  0  0  0  0  0  0  0  0
    2.8579   -2.4750    0.0000 C   0  0  0  0  0  0  0  0  0  0  0  0
    4.3570   -2.3174    0.0000 O   0  0  0  0  0  0  0  0  0  0  0  0
    4.8419   -1.6500    0.0000 C   0  0  0  0  0  0  0  0  0  0  0  0
    4.3570   -0.9826    0.0000 O   0  0  0  0  0  0  0  0  0  0  0  0
   -1.4289   -3.3000    0.0000 C   0  0  0  0  0  0  0  0  0  0  0  0
   -2.1434   -3.7125    0.0000 C   0  0  0  0  0  0  0  0  0  0  0  0
   -5.0013   -4.5375    0.0000 N   0  0  0  0  0  0  0  0  0  0  0  0
   -5.7158   -4.9500    0.0000 O   0  0  0  0  0  0  0  0  0  0  0  0
  1  2  2  0  0  0  0
  2  3  1  0  0  0  0
  3  4  2  0  0  0  0
  4  5  1  0  0  0  0
  5  6  4  0  0  0  0
  6  7  4  0  0  0  0
  7  8  4  0  0  0  0
  8  9  1  0  0  0  0
  9 10  1  0  0  0  0
 10 11  1  0  0  0  0
 11 12  1  0  0  0  0
 12 13  2  0  0  0  0
 12 14  1  0  0  0  0
 14 15  4  0  0  0  0
 15 16  4  0  0  0  0
 16 17  4  0  0  0  0
 17 18  4  0  0  0  0
 18 19  4  0  0  0  0
 14 19  4  0  0  0  0
 18 20  1  0  0  0  0
 20 21  1  0  0  0  0
 21 22  1  0  0  0  0
 17 22  1  0  0  0  0
  8 23  4  0  0  0  0
 23 24  4  0  0  0  0
  5 24  4  0  0  0  0
  2 25  1  0  0  0  0
 25 26  1  0  0  0  0
M  END
>  <Molecule ChEMBL ID>
CHEMBL4078380

>  <Compound Key>
15c

>  <Document ChEMBL ID>
CHEMBL4033641

>  <HDAC1>
1

$$$$

  Mrv1808 03272221002D          

 39 43  0  0  0  0            999 V2000
    7.6590   -2.1582    0.0000 O   0  0  0  0  0  0  0  0  0  0  0  0
    7.6590   -2.9832    0.0000 C   0  0  0  0  0  0  0  0  0  0  0  0
    6.9445   -3.3957    0.0000 C   0  0  0  0  0  0  0  0  0  0  0  0
    6.2301   -2.9832    0.0000 C   0  0  0  0  0  0  0  0  0  0  0  0
    5.5156   -3.3957    0.0000 C   0  0  0  0  0  0  0  0  0  0  0  0
    4.8011   -2.9832    0.0000 C   0  0  0  0  0  0  0  0  0  0  0  0
    4.0866   -3.3957    0.0000 C   0  0  0  0  0  0  0  0  0  0  0  0
    3.3722   -2.9832    0.0000 N   0  0  0  0  0  0  0  0  0  0  0  0
    2.6185   -3.3187    0.0000 C   0  0  0  0  0  0  0  0  0  0  0  0
    2.0665   -2.7056    0.0000 C   0  0  0  0  0  0  0  0  0  0  0  0
    1.2460   -2.7919    0.0000 C   0  0  0  0  0  0  0  0  0  0  0  0
    0.9104   -3.5456    0.0000 C   0  0  0  0  0  0  0  0  0  0  0  0
    0.0900   -3.6318    0.0000 C   0  0  0  0  0  0  0  0  0  0  0  0
   -0.3950   -2.9644    0.0000 C   0  0  0  0  0  0  0  0  0  0  0  0
   -1.2155   -3.0506    0.0000 N   0  0  0  0  0  0  0  0  0  0  0  0
   -1.7004   -2.3832    0.0000 C   0  0  0  0  0  0  0  0  0  0  0  0
   -1.3648   -1.6295    0.0000 N   0  0  0  0  0  0  0  0  0  0  0  0
   -0.5443   -1.5432    0.0000 C   0  0  0  0  0  0  0  0  0  0  0  0
   -0.2088   -0.7896    0.0000 N   0  0  0  0  0  0  0  0  0  0  0  0
   -0.6937   -0.1221    0.0000 C   0  0  0  0  0  0  0  0  0  0  0  0
   -1.5142   -0.2084    0.0000 C   0  0  0  0  0  0  0  0  0  0  0  0
   -1.9991    0.4591    0.0000 C   0  0  0  0  0  0  0  0  0  0  0  0
   -1.6635    1.2128    0.0000 C   0  0  0  0  0  0  0  0  0  0  0  0
   -2.1485    1.8802    0.0000 O   0  0  0  0  0  0  0  0  0  0  0  0
   -1.8129    2.6339    0.0000 C   0  0  0  0  0  0  0  0  0  0  0  0
   -2.2978    3.3013    0.0000 C   0  0  0  0  0  0  0  0  0  0  0  0
   -3.1228    3.3013    0.0000 N   0  0  0  0  0  0  0  0  0  0  0  0
   -3.3778    4.0859    0.0000 C   0  0  0  0  0  0  0  0  0  0  0  0
   -2.7103    4.5708    0.0000 C   0  0  0  0  0  0  0  0  0  0  0  0
   -2.0429    4.0859    0.0000 S   0  0  0  0  0  0  0  0  0  0  0  0
   -0.8431    1.2990    0.0000 C   0  0  0  0  0  0  0  0  0  0  0  0
   -0.5075    2.0527    0.0000 Cl  0  0  0  0  0  0  0  0  0  0  0  0
   -0.3581    0.6315    0.0000 C   0  0  0  0  0  0  0  0  0  0  0  0
   -0.0594   -2.2107    0.0000 C   0  0  0  0  0  0  0  0  0  0  0  0
    0.7611   -2.1244    0.0000 C   0  0  0  0  0  0  0  0  0  0  0  0
    2.4790   -1.9912    0.0000 N   0  0  0  0  0  0  0  0  0  0  0  0
    3.2859   -2.1627    0.0000 N   0  0  0  0  0  0  0  0  0  0  0  0
    8.3735   -3.3957    0.0000 N   0  0  0  0  0  0  0  0  0  0  0  0
    9.0879   -2.9832    0.0000 O   0  0  0  0  0  0  0  0  0  0  0  0
  1  2  2  0  0  0  0
  2  3  1  0  0  0  0
  3  4  1  0  0  0  0
  4  5  1  0  0  0  0
  5  6  1  0  0  0  0
  6  7  1  0  0  0  0
  7  8  1  0  0  0  0
  8  9  4  0  0  0  0
  9 10  4  0  0  0  0
 10 11  1  0  0  0  0
 11 12  4  0  0  0  0
 12 13  4  0  0  0  0
 13 14  4  0  0  0  0
 14 15  4  0  0  0  0
 15 16  4  0  0  0  0
 16 17  4  0  0  0  0
 17 18  4  0  0  0  0
 18 19  1  0  0  0  0
 19 20  1  0  0  0  0
 20 21  4  0  0  0  0
 21 22  4  0  0  0  0
 22 23  4  0  0  0  0
 23 24  1  0  0  0  0
 24 25  1  0  0  0  0
 25 26  1  0  0  0  0
 26 27  4  0  0  0  0
 27 28  4  0  0  0  0
 28 29  4  0  0  0  0
 29 30  4  0  0  0  0
 26 30  4  0  0  0  0
 23 31  4  0  0  0  0
 31 32  1  0  0  0  0
 31 33  4  0  0  0  0
 20 33  4  0  0  0  0
 18 34  4  0  0  0  0
 14 34  4  0  0  0  0
 34 35  4  0  0  0  0
 11 35  4  0  0  0  0
 10 36  4  0  0  0  0
 36 37  4  0  0  0  0
  8 37  4  0  0  0  0
  2 38  1  0  0  0  0
 38 39  1  0  0  0  0
M  END
>  <Molecule ChEMBL ID>
CHEMBL3939771

>  <Compound Key>
9g

>  <Document ChEMBL ID>
CHEMBL3870325

>  <HDAC1>
1

$$$$

  Mrv1808 03272221002D          

 26 28  0  0  0  0            999 V2000
   -4.2868   -5.7750    0.0000 O   0  0  0  0  0  0  0  0  0  0  0  0
   -4.2868   -4.9500    0.0000 C   0  0  0  0  0  0  0  0  0  0  0  0
   -3.5724   -4.5375    0.0000 C   0  0  0  0  0  0  0  0  0  0  0  0
   -3.5724   -3.7125    0.0000 C   0  0  0  0  0  0  0  0  0  0  0  0
   -2.8579   -3.3000    0.0000 C   0  0  0  0  0  0  0  0  0  0  0  0
   -2.8579   -2.4750    0.0000 C   0  0  0  0  0  0  0  0  0  0  0  0
   -2.1434   -2.0625    0.0000 C   0  0  0  0  0  0  0  0  0  0  0  0
   -1.4289   -2.4750    0.0000 C   0  0  0  0  0  0  0  0  0  0  0  0
   -0.7145   -2.0625    0.0000 C   0  0  0  0  0  0  0  0  0  0  0  0
    0.0000   -2.4750    0.0000 C   0  0  0  0  0  0  0  0  0  0  0  0
    0.7145   -2.0625    0.0000 N   0  0  0  0  0  0  0  0  0  0  0  0
    1.4289   -2.4750    0.0000 C   0  0  0  0  0  0  0  0  0  0  0  0
    1.4289   -3.3000    0.0000 O   0  0  0  0  0  0  0  0  0  0  0  0
    2.1434   -2.0625    0.0000 C   0  0  0  0  0  0  0  0  0  0  0  0
    2.1434   -1.2375    0.0000 C   0  0  0  0  0  0  0  0  0  0  0  0
    2.8579   -0.8250    0.0000 C   0  0  0  0  0  0  0  0  0  0  0  0
    3.5724   -1.2375    0.0000 C   0  0  0  0  0  0  0  0  0  0  0  0
    4.3570   -0.9826    0.0000 N   0  0  0  0  0  0  0  0  0  0  0  0
    4.8419   -1.6500    0.0000 C   0  0  0  0  0  0  0  0  0  0  0  0
    4.3570   -2.3174    0.0000 N   0  0  0  0  0  0  0  0  0  0  0  0
    3.5724   -2.0625    0.0000 C   0  0  0  0  0  0  0  0  0  0  0  0
    2.8579   -2.4750    0.0000 C   0  0  0  0  0  0  0  0  0  0  0  0
   -1.4289   -3.3000    0.0000 C   0  0  0  0  0  0  0  0  0  0  0  0
   -2.1434   -3.7125    0.0000 C   0  0  0  0  0  0  0  0  0  0  0  0
   -5.0013   -4.5375    0.0000 N   0  0  0  0  0  0  0  0  0  0  0  0
   -5.7158   -4.9500    0.0000 O   0  0  0  0  0  0  0  0  0  0  0  0
  1  2  2  0  0  0  0
  2  3  1  0  0  0  0
  3  4  2  0  0  0  0
  4  5  1  0  0  0  0
  5  6  4  0  0  0  0
  6  7  4  0  0  0  0
  7  8  4  0  0  0  0
  8  9  1  0  0  0  0
  9 10  1  0  0  0  0
 10 11  1  0  0  0  0
 11 12  1  0  0  0  0
 12 13  2  0  0  0  0
 12 14  1  0  0  0  0
 14 15  4  0  0  0  0
 15 16  4  0  0  0  0
 16 17  4  0  0  0  0
 17 18  4  0  0  0  0
 18 19  4  0  0  0  0
 19 20  4  0  0  0  0
 20 21  4  0  0  0  0
 17 21  4  0  0  0  0
 21 22  4  0  0  0  0
 14 22  4  0  0  0  0
  8 23  4  0  0  0  0
 23 24  4  0  0  0  0
  5 24  4  0  0  0  0
  2 25  1  0  0  0  0
 25 26  1  0  0  0  0
M  STY  1   1 DAT
M  SAL   1  1  18
M  SDT   1 MRV_IMPLICIT_H                                        
M  SDD   1     0.5304   -0.4125    DR    ALL  0       0  
M  SED   1 IMPL_H1
M  END
>  <Molecule ChEMBL ID>
CHEMBL4076931

>  <Compound Key>
15g

>  <Document ChEMBL ID>
CHEMBL4033641

>  <HDAC1>
1

$$$$

  Mrv1808 03272221002D          

 27 28  0  0  0  0            999 V2000
   -2.8579    4.9500    0.0000 C   0  0  0  0  0  0  0  0  0  0  0  0
   -2.8579    5.7750    0.0000 C   0  0  0  0  0  0  0  0  0  0  0  0
   -3.5724    6.1875    0.0000 C   0  0  0  0  0  0  0  0  0  0  0  0
   -3.5724    7.0125    0.0000 C   0  0  0  0  0  0  0  0  0  0  0  0
   -2.8579    7.4250    0.0000 C   0  0  0  0  0  0  0  0  0  0  0  0
   -2.1434    7.0125    0.0000 C   0  0  0  0  0  0  0  0  0  0  0  0
   -2.1434    6.1875    0.0000 C   0  0  0  0  0  0  0  0  0  0  0  0
   -1.4289    5.7750    0.0000 C   0  0  0  0  0  0  0  0  0  0  0  0
   -0.7145    6.1875    0.0000 C   0  0  0  0  0  0  0  0  0  0  0  0
    0.0000    5.7750    0.0000 C   0  0  0  0  0  0  0  0  0  0  0  0
    0.0000    4.9500    0.0000 C   0  0  0  0  0  0  0  0  0  0  0  0
    0.7145    4.5375    0.0000 C   0  0  0  0  0  0  0  0  0  0  0  0
    0.7145    3.7125    0.0000 N   0  0  0  0  0  0  0  0  0  0  0  0
    1.4289    3.3000    0.0000 N   0  0  0  0  0  0  0  0  0  0  0  0
    2.1434    3.7125    0.0000 C   0  0  0  0  0  0  0  0  0  0  0  0
    2.1434    4.5375    0.0000 O   0  0  0  0  0  0  0  0  0  0  0  0
    2.8579    3.3000    0.0000 C   0  0  0  0  0  0  0  0  0  0  0  0
    3.5724    3.7125    0.0000 C   0  0  0  0  0  0  0  0  0  0  0  0
    4.2868    3.3000    0.0000 C   0  0  0  0  0  0  0  0  0  0  0  0
    5.0013    3.7125    0.0000 C   0  0  0  0  0  0  0  0  0  0  0  0
    5.7158    3.3000    0.0000 C   0  0  0  0  0  0  0  0  0  0  0  0
    6.4302    3.7125    0.0000 C   0  0  0  0  0  0  0  0  0  0  0  0
    6.4302    4.5375    0.0000 O   0  0  0  0  0  0  0  0  0  0  0  0
    7.1447    3.3000    0.0000 N   0  0  0  0  0  0  0  0  0  0  0  0
    7.8592    3.7125    0.0000 O   0  0  0  0  0  0  0  0  0  0  0  0
   -0.7145    4.5375    0.0000 C   0  0  0  0  0  0  0  0  0  0  0  0
   -1.4289    4.9500    0.0000 C   0  0  0  0  0  0  0  0  0  0  0  0
  1  2  1  0  0  0  0
  2  3  4  0  0  0  0
  3  4  4  0  0  0  0
  4  5  4  0  0  0  0
  5  6  4  0  0  0  0
  6  7  4  0  0  0  0
  2  7  4  0  0  0  0
  7  8  1  0  0  0  0
  8  9  4  0  0  0  0
  9 10  4  0  0  0  0
 10 11  4  0  0  0  0
 11 12  1  0  0  0  0
 12 13  2  0  0  0  0
 13 14  1  0  0  0  0
 14 15  1  0  0  0  0
 15 16  2  0  0  0  0
 15 17  1  0  0  0  0
 17 18  1  0  0  0  0
 18 19  1  0  0  0  0
 19 20  1  0  0  0  0
 20 21  1  0  0  0  0
 21 22  1  0  0  0  0
 22 23  2  0  0  0  0
 22 24  1  0  0  0  0
 24 25  1  0  0  0  0
 11 26  4  0  0  0  0
 26 27  4  0  0  0  0
  8 27  4  0  0  0  0
M  END
>  <Molecule ChEMBL ID>
CHEMBL3758191

>  <Compound Key>
9d

>  <Document ChEMBL ID>
CHEMBL3758132

>  <HDAC1>
1

$$$$

  Mrv1808 03272221002D          

 32 34  0  0  0  0            999 V2000
    1.9908   -7.6407    0.0000 C   0  0  0  0  0  0  0  0  0  0  0  0
    1.2763   -7.2282    0.0000 O   0  0  0  0  0  0  0  0  0  0  0  0
    1.2763   -6.4032    0.0000 C   0  0  0  0  0  0  0  0  0  0  0  0
    0.5619   -5.9907    0.0000 C   0  0  0  0  0  0  0  0  0  0  0  0
    0.5619   -5.1657    0.0000 C   0  0  0  0  0  0  0  0  0  0  0  0
    1.2763   -4.7532    0.0000 C   0  0  0  0  0  0  0  0  0  0  0  0
    1.2763   -3.9282    0.0000 N   0  0  0  0  0  0  0  0  0  0  0  0
    0.5619   -3.5157    0.0000 C   0  0  0  0  0  0  0  0  0  0  0  0
   -0.1526   -3.9282    0.0000 C   0  0  0  0  0  0  0  0  0  0  0  0
   -0.2388   -4.7486    0.0000 N   0  0  0  0  0  0  0  0  0  0  0  0
   -1.0458   -4.9202    0.0000 O   0  0  0  0  0  0  0  0  0  0  0  0
   -1.4583   -4.2057    0.0000 C   0  0  0  0  0  0  0  0  0  0  0  0
   -2.2788   -4.1195    0.0000 C   0  0  0  0  0  0  0  0  0  0  0  0
   -2.7637   -4.7869    0.0000 C   0  0  0  0  0  0  0  0  0  0  0  0
   -3.5842   -4.7007    0.0000 C   0  0  0  0  0  0  0  0  0  0  0  0
   -3.9198   -3.9470    0.0000 C   0  0  0  0  0  0  0  0  0  0  0  0
   -3.4348   -3.2795    0.0000 C   0  0  0  0  0  0  0  0  0  0  0  0
   -2.6144   -3.3658    0.0000 C   0  0  0  0  0  0  0  0  0  0  0  0
   -0.9063   -3.5926    0.0000 N   0  0  0  0  0  0  0  0  0  0  0  0
    1.9908   -3.5157    0.0000 C   0  0  0  0  0  0  0  0  0  0  0  0
    1.9908   -2.6907    0.0000 O   0  0  0  0  0  0  0  0  0  0  0  0
    2.7053   -3.9282    0.0000 C   0  0  0  0  0  0  0  0  0  0  0  0
    3.4197   -3.5157    0.0000 C   0  0  0  0  0  0  0  0  0  0  0  0
    4.1342   -3.9282    0.0000 C   0  0  0  0  0  0  0  0  0  0  0  0
    4.8487   -3.5157    0.0000 C   0  0  0  0  0  0  0  0  0  0  0  0
    5.5632   -3.9282    0.0000 C   0  0  0  0  0  0  0  0  0  0  0  0
    6.2776   -3.5157    0.0000 C   0  0  0  0  0  0  0  0  0  0  0  0
    6.2776   -2.6907    0.0000 O   0  0  0  0  0  0  0  0  0  0  0  0
    6.9921   -3.9282    0.0000 N   0  0  0  0  0  0  0  0  0  0  0  0
    7.7066   -3.5157    0.0000 O   0  0  0  0  0  0  0  0  0  0  0  0
    1.9908   -5.1657    0.0000 C   0  0  0  0  0  0  0  0  0  0  0  0
    1.9908   -5.9907    0.0000 C   0  0  0  0  0  0  0  0  0  0  0  0
  1  2  1  0  0  0  0
  2  3  1  0  0  0  0
  3  4  4  0  0  0  0
  4  5  4  0  0  0  0
  5  6  4  0  0  0  0
  6  7  1  0  0  0  0
  7  8  1  0  0  0  0
  8  9  1  0  0  0  0
  9 10  4  0  0  0  0
 10 11  4  0  0  0  0
 11 12  4  0  0  0  0
 12 13  1  0  0  0  0
 13 14  4  0  0  0  0
 14 15  4  0  0  0  0
 15 16  4  0  0  0  0
 16 17  4  0  0  0  0
 17 18  4  0  0  0  0
 13 18  4  0  0  0  0
 12 19  4  0  0  0  0
  9 19  4  0  0  0  0
  7 20  1  0  0  0  0
 20 21  2  0  0  0  0
 20 22  1  0  0  0  0
 22 23  1  0  0  0  0
 23 24  1  0  0  0  0
 24 25  1  0  0  0  0
 25 26  1  0  0  0  0
 26 27  1  0  0  0  0
 27 28  2  0  0  0  0
 27 29  1  0  0  0  0
 29 30  1  0  0  0  0
  6 31  4  0  0  0  0
 31 32  4  0  0  0  0
  3 32  4  0  0  0  0
M  END
>  <Molecule ChEMBL ID>
CHEMBL4465444

>  <Compound Key>
11a

>  <Document ChEMBL ID>
CHEMBL4308883

>  <HDAC1>
1

$$$$

  Mrv1808 03272221002D          

 35 39  0  0  0  0            999 V2000
    7.3277    6.4745    0.0000 O   0  0  0  0  0  0  0  0  0  0  0  0
    7.3277    5.6495    0.0000 C   0  0  0  0  0  0  0  0  0  0  0  0
    6.6132    5.2370    0.0000 C   0  0  0  0  0  0  0  0  0  0  0  0
    5.8987    5.6495    0.0000 C   0  0  0  0  0  0  0  0  0  0  0  0
    5.1842    5.2370    0.0000 C   0  0  0  0  0  0  0  0  0  0  0  0
    4.4698    5.6495    0.0000 C   0  0  0  0  0  0  0  0  0  0  0  0
    3.7553    5.2370    0.0000 C   0  0  0  0  0  0  0  0  0  0  0  0
    3.0408    5.6495    0.0000 N   0  0  0  0  0  0  0  0  0  0  0  0
    2.2872    5.3139    0.0000 C   0  0  0  0  0  0  0  0  0  0  0  0
    1.7351    5.9270    0.0000 C   0  0  0  0  0  0  0  0  0  0  0  0
    0.9146    5.8408    0.0000 C   0  0  0  0  0  0  0  0  0  0  0  0
    0.5791    5.0871    0.0000 C   0  0  0  0  0  0  0  0  0  0  0  0
   -0.2414    5.0009    0.0000 C   0  0  0  0  0  0  0  0  0  0  0  0
   -0.7263    5.6683    0.0000 C   0  0  0  0  0  0  0  0  0  0  0  0
   -1.5468    5.5821    0.0000 N   0  0  0  0  0  0  0  0  0  0  0  0
   -2.0317    6.2495    0.0000 C   0  0  0  0  0  0  0  0  0  0  0  0
   -2.8522    6.1633    0.0000 C   0  0  0  0  0  0  0  0  0  0  0  0
   -3.1878    5.4096    0.0000 C   0  0  0  0  0  0  0  0  0  0  0  0
   -4.0082    5.3234    0.0000 C   0  0  0  0  0  0  0  0  0  0  0  0
   -4.4932    5.9908    0.0000 C   0  0  0  0  0  0  0  0  0  0  0  0
   -4.1576    6.7445    0.0000 C   0  0  0  0  0  0  0  0  0  0  0  0
   -3.3371    6.8307    0.0000 C   0  0  0  0  0  0  0  0  0  0  0  0
   -3.0016    7.5844    0.0000 N   0  0  0  0  0  0  0  0  0  0  0  0
   -2.1811    7.6706    0.0000 C   0  0  0  0  0  0  0  0  0  0  0  0
   -1.8455    8.4243    0.0000 C   0  0  0  0  0  0  0  0  0  0  0  0
   -1.0250    8.5105    0.0000 C   0  0  0  0  0  0  0  0  0  0  0  0
   -0.5401    7.8431    0.0000 C   0  0  0  0  0  0  0  0  0  0  0  0
   -0.8757    7.0894    0.0000 C   0  0  0  0  0  0  0  0  0  0  0  0
   -1.6962    7.0032    0.0000 C   0  0  0  0  0  0  0  0  0  0  0  0
   -0.3908    6.4220    0.0000 C   0  0  0  0  0  0  0  0  0  0  0  0
    0.4297    6.5082    0.0000 C   0  0  0  0  0  0  0  0  0  0  0  0
    2.1476    6.6415    0.0000 N   0  0  0  0  0  0  0  0  0  0  0  0
    2.9546    6.4700    0.0000 N   0  0  0  0  0  0  0  0  0  0  0  0
    8.0421    5.2370    0.0000 N   0  0  0  0  0  0  0  0  0  0  0  0
    8.7566    5.6495    0.0000 O   0  0  0  0  0  0  0  0  0  0  0  0
  1  2  2  0  0  0  0
  2  3  1  0  0  0  0
  3  4  1  0  0  0  0
  4  5  1  0  0  0  0
  5  6  1  0  0  0  0
  6  7  1  0  0  0  0
  7  8  1  0  0  0  0
  8  9  4  0  0  0  0
  9 10  4  0  0  0  0
 10 11  1  0  0  0  0
 11 12  4  0  0  0  0
 12 13  4  0  0  0  0
 13 14  4  0  0  0  0
 14 15  1  0  0  0  0
 15 16  1  0  0  0  0
 16 17  4  0  0  0  0
 17 18  4  0  0  0  0
 18 19  4  0  0  0  0
 19 20  4  0  0  0  0
 20 21  4  0  0  0  0
 21 22  4  0  0  0  0
 17 22  4  0  0  0  0
 22 23  4  0  0  0  0
 23 24  4  0  0  0  0
 24 25  4  0  0  0  0
 25 26  4  0  0  0  0
 26 27  4  0  0  0  0
 27 28  4  0  0  0  0
 28 29  4  0  0  0  0
 16 29  4  0  0  0  0
 24 29  4  0  0  0  0
 14 30  4  0  0  0  0
 30 31  4  0  0  0  0
 11 31  4  0  0  0  0
 10 32  4  0  0  0  0
 32 33  4  0  0  0  0
  8 33  4  0  0  0  0
  2 34  1  0  0  0  0
 34 35  1  0  0  0  0
M  END
>  <Molecule ChEMBL ID>
CHEMBL4237410

>  <Compound Key>
8a

>  <Document ChEMBL ID>
CHEMBL4229424

>  <HDAC1>
1

$$$$

  Mrv1808 03272221002D          

 42 46  0  0  0  0            999 V2000
    7.1741   -2.8256    0.0000 O   0  0  0  0  0  0  0  0  0  0  0  0
    7.1741   -3.6506    0.0000 C   0  0  0  0  0  0  0  0  0  0  0  0
    6.4596   -4.0631    0.0000 C   0  0  0  0  0  0  0  0  0  0  0  0
    5.7451   -3.6506    0.0000 C   0  0  0  0  0  0  0  0  0  0  0  0
    5.0307   -4.0631    0.0000 C   0  0  0  0  0  0  0  0  0  0  0  0
    4.3162   -3.6506    0.0000 C   0  0  0  0  0  0  0  0  0  0  0  0
    3.6017   -4.0631    0.0000 C   0  0  0  0  0  0  0  0  0  0  0  0
    2.8873   -3.6506    0.0000 C   0  0  0  0  0  0  0  0  0  0  0  0
    2.1728   -4.0631    0.0000 N   0  0  0  0  0  0  0  0  0  0  0  0
    2.0865   -4.8836    0.0000 C   0  0  0  0  0  0  0  0  0  0  0  0
    1.2796   -5.0551    0.0000 C   0  0  0  0  0  0  0  0  0  0  0  0
    0.9440   -5.8088    0.0000 C   0  0  0  0  0  0  0  0  0  0  0  0
    1.4289   -6.4762    0.0000 C   0  0  0  0  0  0  0  0  0  0  0  0
    1.0934   -7.2299    0.0000 C   0  0  0  0  0  0  0  0  0  0  0  0
    0.2729   -7.3162    0.0000 C   0  0  0  0  0  0  0  0  0  0  0  0
   -0.0627   -8.0698    0.0000 N   0  0  0  0  0  0  0  0  0  0  0  0
   -0.8831   -8.1561    0.0000 C   0  0  0  0  0  0  0  0  0  0  0  0
   -1.3681   -7.4886    0.0000 N   0  0  0  0  0  0  0  0  0  0  0  0
   -1.0325   -6.7350    0.0000 C   0  0  0  0  0  0  0  0  0  0  0  0
   -1.5174   -6.0675    0.0000 N   0  0  0  0  0  0  0  0  0  0  0  0
   -2.3379   -6.1537    0.0000 C   0  0  0  0  0  0  0  0  0  0  0  0
   -2.6735   -6.9074    0.0000 C   0  0  0  0  0  0  0  0  0  0  0  0
   -3.4939   -6.9937    0.0000 C   0  0  0  0  0  0  0  0  0  0  0  0
   -3.9789   -6.3262    0.0000 C   0  0  0  0  0  0  0  0  0  0  0  0
   -4.7993   -6.4125    0.0000 O   0  0  0  0  0  0  0  0  0  0  0  0
   -5.2843   -5.7450    0.0000 C   0  0  0  0  0  0  0  0  0  0  0  0
   -6.1047   -5.8313    0.0000 C   0  0  0  0  0  0  0  0  0  0  0  0
   -6.4403   -6.5849    0.0000 C   0  0  0  0  0  0  0  0  0  0  0  0
   -7.2608   -6.6712    0.0000 C   0  0  0  0  0  0  0  0  0  0  0  0
   -7.7457   -6.0037    0.0000 C   0  0  0  0  0  0  0  0  0  0  0  0
   -7.4102   -5.2501    0.0000 C   0  0  0  0  0  0  0  0  0  0  0  0
   -7.8951   -4.5826    0.0000 F   0  0  0  0  0  0  0  0  0  0  0  0
   -6.5897   -5.1638    0.0000 C   0  0  0  0  0  0  0  0  0  0  0  0
   -3.6433   -5.5725    0.0000 C   0  0  0  0  0  0  0  0  0  0  0  0
   -4.1282   -4.9051    0.0000 Cl  0  0  0  0  0  0  0  0  0  0  0  0
   -2.8228   -5.4863    0.0000 C   0  0  0  0  0  0  0  0  0  0  0  0
   -0.2120   -6.6487    0.0000 C   0  0  0  0  0  0  0  0  0  0  0  0
    0.1235   -5.8950    0.0000 C   0  0  0  0  0  0  0  0  0  0  0  0
    0.8671   -4.3407    0.0000 N   0  0  0  0  0  0  0  0  0  0  0  0
    1.4191   -3.7276    0.0000 N   0  0  0  0  0  0  0  0  0  0  0  0
    7.8886   -4.0631    0.0000 N   0  0  0  0  0  0  0  0  0  0  0  0
    8.6030   -3.6506    0.0000 O   0  0  0  0  0  0  0  0  0  0  0  0
  1  2  2  0  0  0  0
  2  3  1  0  0  0  0
  3  4  1  0  0  0  0
  4  5  1  0  0  0  0
  5  6  1  0  0  0  0
  6  7  1  0  0  0  0
  7  8  1  0  0  0  0
  8  9  1  0  0  0  0
  9 10  4  0  0  0  0
 10 11  4  0  0  0  0
 11 12  1  0  0  0  0
 12 13  4  0  0  0  0
 13 14  4  0  0  0  0
 14 15  4  0  0  0  0
 15 16  4  0  0  0  0
 16 17  4  0  0  0  0
 17 18  4  0  0  0  0
 18 19  4  0  0  0  0
 19 20  1  0  0  0  0
 20 21  1  0  0  0  0
 21 22  4  0  0  0  0
 22 23  4  0  0  0  0
 23 24  4  0  0  0  0
 24 25  1  0  0  0  0
 25 26  1  0  0  0  0
 26 27  1  0  0  0  0
 27 28  4  0  0  0  0
 28 29  4  0  0  0  0
 29 30  4  0  0  0  0
 30 31  4  0  0  0  0
 31 32  1  0  0  0  0
 31 33  4  0  0  0  0
 27 33  4  0  0  0  0
 24 34  4  0  0  0  0
 34 35  1  0  0  0  0
 34 36  4  0  0  0  0
 21 36  4  0  0  0  0
 19 37  4  0  0  0  0
 15 37  4  0  0  0  0
 37 38  4  0  0  0  0
 12 38  4  0  0  0  0
 11 39  4  0  0  0  0
 39 40  4  0  0  0  0
  9 40  4  0  0  0  0
  2 41  1  0  0  0  0
 41 42  1  0  0  0  0
M  END
>  <Molecule ChEMBL ID>
CHEMBL3911796

>  <Compound Key>
9f

>  <Document ChEMBL ID>
CHEMBL3870325

>  <HDAC1>
1

$$$$

  Mrv1808 03272221002D          

 20 20  0  0  0  0            999 V2000
    5.0013   -0.4125    0.0000 O   0  0  0  0  0  0  0  0  0  0  0  0
    5.0013   -1.2375    0.0000 C   0  0  0  0  0  0  0  0  0  0  0  0
    4.2868   -1.6500    0.0000 C   0  0  0  0  0  0  0  0  0  0  0  0
    3.5724   -1.2375    0.0000 C   0  0  0  0  0  0  0  0  0  0  0  0
    2.8579   -1.6500    0.0000 C   0  0  0  0  0  0  0  0  0  0  0  0
    2.1434   -1.2375    0.0000 C   0  0  0  0  0  0  0  0  0  0  0  0
    1.4289   -1.6500    0.0000 C   0  0  0  0  0  0  0  0  0  0  0  0
    0.7145   -1.2375    0.0000 C   0  0  0  0  0  0  0  0  0  0  0  0
    0.0000   -1.6500    0.0000 C   0  0  0  0  0  0  0  0  0  0  0  0
    0.0000   -2.4750    0.0000 O   0  0  0  0  0  0  0  0  0  0  0  0
   -0.7145   -1.2375    0.0000 N   0  0  0  0  0  0  0  0  0  0  0  0
   -1.4289   -1.6500    0.0000 C   0  0  0  0  0  0  0  0  0  0  0  0
   -1.4289   -2.4750    0.0000 C   0  0  0  0  0  0  0  0  0  0  0  0
   -2.1434   -2.8875    0.0000 C   0  0  0  0  0  0  0  0  0  0  0  0
   -2.8579   -2.4750    0.0000 C   0  0  0  0  0  0  0  0  0  0  0  0
   -3.5724   -2.8875    0.0000 F   0  0  0  0  0  0  0  0  0  0  0  0
   -2.8579   -1.6500    0.0000 C   0  0  0  0  0  0  0  0  0  0  0  0
   -2.1434   -1.2375    0.0000 C   0  0  0  0  0  0  0  0  0  0  0  0
    5.7158   -1.6500    0.0000 N   0  0  0  0  0  0  0  0  0  0  0  0
    6.4302   -1.2375    0.0000 O   0  0  0  0  0  0  0  0  0  0  0  0
  1  2  2  0  0  0  0
  2  3  1  0  0  0  0
  3  4  1  0  0  0  0
  4  5  1  0  0  0  0
  5  6  1  0  0  0  0
  6  7  1  0  0  0  0
  7  8  1  0  0  0  0
  8  9  1  0  0  0  0
  9 10  2  0  0  0  0
  9 11  1  0  0  0  0
 11 12  1  0  0  0  0
 12 13  4  0  0  0  0
 13 14  4  0  0  0  0
 14 15  4  0  0  0  0
 15 16  1  0  0  0  0
 15 17  4  0  0  0  0
 17 18  4  0  0  0  0
 12 18  4  0  0  0  0
  2 19  1  0  0  0  0
 19 20  1  0  0  0  0
M  ISO  1  16  19
M  END
>  <Molecule ChEMBL ID>
CHEMBL1923808

>  <Compound Key>
1b, 19F-SAHA

>  <Document ChEMBL ID>
CHEMBL1921669

>  <HDAC1>
1

$$$$

  Mrv1808 03272221002D          

 27 30  0  0  0  0            999 V2000
   -2.3414   -6.9804    0.0000 O   0  0  0  0  0  0  0  0  0  0  0  0
   -1.5210   -6.8942    0.0000 C   0  0  0  0  0  0  0  0  0  0  0  0
   -1.0360   -7.5616    0.0000 N   0  0  0  0  0  0  0  0  0  0  0  0
   -1.3716   -8.3153    0.0000 O   0  0  0  0  0  0  0  0  0  0  0  0
   -1.1854   -6.1405    0.0000 C   0  0  0  0  0  0  0  0  0  0  0  0
   -1.6703   -5.4731    0.0000 C   0  0  0  0  0  0  0  0  0  0  0  0
   -1.3348   -4.7194    0.0000 C   0  0  0  0  0  0  0  0  0  0  0  0
   -0.5143   -4.6332    0.0000 C   0  0  0  0  0  0  0  0  0  0  0  0
   -0.1787   -3.8795    0.0000 N   0  0  0  0  0  0  0  0  0  0  0  0
   -0.5912   -3.1650    0.0000 C   0  0  0  0  0  0  0  0  0  0  0  0
   -0.0392   -2.5519    0.0000 C   0  0  0  0  0  0  0  0  0  0  0  0
    0.7145   -2.8875    0.0000 N   0  0  0  0  0  0  0  0  0  0  0  0
    1.4289   -2.4750    0.0000 C   0  0  0  0  0  0  0  0  0  0  0  0
    1.4289   -1.6500    0.0000 C   0  0  0  0  0  0  0  0  0  0  0  0
    0.7145   -1.2375    0.0000 C   0  0  0  0  0  0  0  0  0  0  0  0
    0.7145   -0.4125    0.0000 C   0  0  0  0  0  0  0  0  0  0  0  0
    1.4289    0.0000    0.0000 C   0  0  0  0  0  0  0  0  0  0  0  0
    2.1434   -0.4125    0.0000 C   0  0  0  0  0  0  0  0  0  0  0  0
    2.8579    0.0000    0.0000 C   0  0  0  0  0  0  0  0  0  0  0  0
    3.5724   -0.4125    0.0000 C   0  0  0  0  0  0  0  0  0  0  0  0
    3.5724   -1.2375    0.0000 C   0  0  0  0  0  0  0  0  0  0  0  0
    2.8579   -1.6500    0.0000 C   0  0  0  0  0  0  0  0  0  0  0  0
    2.1434   -1.2375    0.0000 C   0  0  0  0  0  0  0  0  0  0  0  0
    0.6282   -3.7080    0.0000 C   0  0  0  0  0  0  0  0  0  0  0  0
    1.2413   -4.2600    0.0000 O   0  0  0  0  0  0  0  0  0  0  0  0
   -0.0294   -5.3006    0.0000 C   0  0  0  0  0  0  0  0  0  0  0  0
   -0.3649   -6.0543    0.0000 C   0  0  0  0  0  0  0  0  0  0  0  0
  1  2  2  0  0  0  0
  2  3  1  0  0  0  0
  3  4  1  0  0  0  0
  2  5  1  0  0  0  0
  5  6  4  0  0  0  0
  6  7  4  0  0  0  0
  7  8  4  0  0  0  0
  8  9  1  0  0  0  0
  9 10  1  0  0  0  0
 10 11  1  0  0  0  0
 11 12  1  0  0  0  0
 12 13  1  0  0  0  0
 13 14  1  0  0  0  0
 14 15  4  0  0  0  0
 15 16  4  0  0  0  0
 16 17  4  0  0  0  0
 17 18  4  0  0  0  0
 18 19  4  0  0  0  0
 19 20  4  0  0  0  0
 20 21  4  0  0  0  0
 21 22  4  0  0  0  0
 22 23  4  0  0  0  0
 14 23  4  0  0  0  0
 18 23  4  0  0  0  0
 12 24  1  0  0  0  0
  9 24  1  0  0  0  0
 24 25  2  0  0  0  0
  8 26  4  0  0  0  0
 26 27  4  0  0  0  0
  5 27  4  0  0  0  0
M  END
>  <Molecule ChEMBL ID>
CHEMBL3335003

>  <Compound Key>
1l

>  <Document ChEMBL ID>
CHEMBL3351615

>  <HDAC1>
1

$$$$

  Mrv1808 03272221002D          

 26 28  0  0  0  0            999 V2000
    2.8579    2.4750    0.0000 C   0  0  0  0  0  0  0  0  0  0  0  0
    2.1434    2.0625    0.0000 N   0  0  0  0  0  0  0  0  0  0  0  0
    1.4289    2.4750    0.0000 C   0  0  0  0  0  0  0  0  0  0  0  0
    2.1434    1.2375    0.0000 C   0  0  0  0  0  0  0  0  0  0  0  0
    2.8579    0.8250    0.0000 C   0  0  0  0  0  0  0  0  0  0  0  0
    2.8579   -0.0000    0.0000 C   0  0  0  0  0  0  0  0  0  0  0  0
    2.1434   -0.4125    0.0000 C   0  0  0  0  0  0  0  0  0  0  0  0
    1.4289   -0.0000    0.0000 C   0  0  0  0  0  0  0  0  0  0  0  0
    0.7145   -0.4125    0.0000 C   0  0  0  0  0  0  0  0  0  0  0  0
    0.7145   -1.2375    0.0000 N   0  0  0  0  0  0  0  0  0  0  0  0
    1.3819   -1.7224    0.0000 C   0  0  0  0  0  0  0  0  0  0  0  0
    1.1270   -2.5070    0.0000 C   0  0  0  0  0  0  0  0  0  0  0  0
    0.3020   -2.5070    0.0000 N   0  0  0  0  0  0  0  0  0  0  0  0
   -0.1830   -3.1745    0.0000 C   0  0  0  0  0  0  0  0  0  0  0  0
    0.1526   -3.9282    0.0000 C   0  0  0  0  0  0  0  0  0  0  0  0
   -0.3323   -4.5956    0.0000 C   0  0  0  0  0  0  0  0  0  0  0  0
   -1.1528   -4.5094    0.0000 C   0  0  0  0  0  0  0  0  0  0  0  0
   -1.6377   -5.1768    0.0000 C   0  0  0  0  0  0  0  0  0  0  0  0
   -1.3022   -5.9305    0.0000 O   0  0  0  0  0  0  0  0  0  0  0  0
   -2.4582   -5.0906    0.0000 N   0  0  0  0  0  0  0  0  0  0  0  0
   -2.9431   -5.7580    0.0000 O   0  0  0  0  0  0  0  0  0  0  0  0
   -1.4884   -3.7557    0.0000 C   0  0  0  0  0  0  0  0  0  0  0  0
   -1.0034   -3.0882    0.0000 C   0  0  0  0  0  0  0  0  0  0  0  0
    0.0470   -1.7224    0.0000 C   0  0  0  0  0  0  0  0  0  0  0  0
   -0.7376   -1.4675    0.0000 O   0  0  0  0  0  0  0  0  0  0  0  0
    1.4289    0.8250    0.0000 C   0  0  0  0  0  0  0  0  0  0  0  0
  1  2  1  0  0  0  0
  2  3  1  0  0  0  0
  2  4  1  0  0  0  0
  4  5  4  0  0  0  0
  5  6  4  0  0  0  0
  6  7  4  0  0  0  0
  7  8  4  0  0  0  0
  8  9  1  0  0  0  0
  9 10  1  0  0  0  0
 10 11  1  0  0  0  0
 11 12  1  0  0  0  0
 12 13  1  0  0  0  0
 13 14  1  0  0  0  0
 14 15  4  0  0  0  0
 15 16  4  0  0  0  0
 16 17  4  0  0  0  0
 17 18  1  0  0  0  0
 18 19  2  0  0  0  0
 18 20  1  0  0  0  0
 20 21  1  0  0  0  0
 17 22  4  0  0  0  0
 22 23  4  0  0  0  0
 14 23  4  0  0  0  0
 13 24  1  0  0  0  0
 10 24  1  0  0  0  0
 24 25  2  0  0  0  0
  8 26  4  0  0  0  0
  4 26  4  0  0  0  0
M  END
>  <Molecule ChEMBL ID>
CHEMBL3335000

>  <Compound Key>
1i

>  <Document ChEMBL ID>
CHEMBL3351615

>  <HDAC1>
1

$$$$

  Mrv1808 03272221002D          

 28 30  0  0  0  0            999 V2000
    8.4023    0.2439    0.0000 O   0  0  0  0  0  0  0  0  0  0  0  0
    8.4023   -0.5811    0.0000 C   0  0  0  0  0  0  0  0  0  0  0  0
    7.6879   -0.9936    0.0000 C   0  0  0  0  0  0  0  0  0  0  0  0
    6.9734   -0.5811    0.0000 C   0  0  0  0  0  0  0  0  0  0  0  0
    6.2589   -0.9936    0.0000 C   0  0  0  0  0  0  0  0  0  0  0  0
    5.5445   -0.5811    0.0000 C   0  0  0  0  0  0  0  0  0  0  0  0
    4.8300   -0.9936    0.0000 C   0  0  0  0  0  0  0  0  0  0  0  0
    4.1155   -0.5811    0.0000 C   0  0  0  0  0  0  0  0  0  0  0  0
    3.4010   -0.9936    0.0000 C   0  0  0  0  0  0  0  0  0  0  0  0
    3.4010   -1.8186    0.0000 O   0  0  0  0  0  0  0  0  0  0  0  0
    2.6866   -0.5811    0.0000 N   0  0  0  0  0  0  0  0  0  0  0  0
    1.9721   -0.9936    0.0000 C   0  0  0  0  0  0  0  0  0  0  0  0
    1.8859   -1.8141    0.0000 N   0  0  0  0  0  0  0  0  0  0  0  0
    1.0789   -1.9856    0.0000 N   0  0  0  0  0  0  0  0  0  0  0  0
    0.6664   -1.2711    0.0000 C   0  0  0  0  0  0  0  0  0  0  0  0
   -0.1406   -1.0996    0.0000 C   0  0  0  0  0  0  0  0  0  0  0  0
   -0.3955   -0.3150    0.0000 C   0  0  0  0  0  0  0  0  0  0  0  0
   -1.2025   -0.1435    0.0000 C   0  0  0  0  0  0  0  0  0  0  0  0
   -1.7545   -0.7566    0.0000 C   0  0  0  0  0  0  0  0  0  0  0  0
   -2.5615   -0.5850    0.0000 C   0  0  0  0  0  0  0  0  0  0  0  0
   -2.8164    0.1996    0.0000 C   0  0  0  0  0  0  0  0  0  0  0  0
   -2.2644    0.8127    0.0000 C   0  0  0  0  0  0  0  0  0  0  0  0
   -1.4574    0.6412    0.0000 C   0  0  0  0  0  0  0  0  0  0  0  0
    0.1565    0.2981    0.0000 C   0  0  0  0  0  0  0  0  0  0  0  0
    0.9635    0.1266    0.0000 C   0  0  0  0  0  0  0  0  0  0  0  0
    1.2184   -0.6580    0.0000 C   0  0  0  0  0  0  0  0  0  0  0  0
    9.1168   -0.9936    0.0000 N   0  0  0  0  0  0  0  0  0  0  0  0
    9.8313   -0.5811    0.0000 O   0  0  0  0  0  0  0  0  0  0  0  0
  1  2  2  0  0  0  0
  2  3  1  0  0  0  0
  3  4  1  0  0  0  0
  4  5  1  0  0  0  0
  5  6  1  0  0  0  0
  6  7  1  0  0  0  0
  7  8  1  0  0  0  0
  8  9  1  0  0  0  0
  9 10  2  0  0  0  0
  9 11  1  0  0  0  0
 11 12  1  0  0  0  0
 12 13  4  0  0  0  0
 13 14  4  0  0  0  0
 14 15  4  0  0  0  0
 15 16  4  0  0  0  0
 16 17  4  0  0  0  0
 17 18  1  0  0  0  0
 18 19  4  0  0  0  0
 19 20  4  0  0  0  0
 20 21  4  0  0  0  0
 21 22  4  0  0  0  0
 22 23  4  0  0  0  0
 18 23  4  0  0  0  0
 17 24  4  0  0  0  0
 24 25  4  0  0  0  0
 25 26  4  0  0  0  0
 12 26  4  0  0  0  0
 15 26  4  0  0  0  0
  2 27  1  0  0  0  0
 27 28  1  0  0  0  0
M  STY  1   1 DAT
M  SAL   1  1  14
M  SDT   1 MRV_IMPLICIT_H                                        
M  SDD   1     0.5304   -0.4125    DR    ALL  0       0  
M  SED   1 IMPL_H1
M  END
>  <Molecule ChEMBL ID>
CHEMBL4782327

>  <Compound Key>
15a

>  <Document ChEMBL ID>
CHEMBL4765277

>  <HDAC1>
1

$$$$

  Mrv1808 03272221002D          

 46 50  0  0  0  0            999 V2000
    8.3536    4.8229    0.0000 C   0  0  0  0  0  0  0  0  0  0  0  0
    7.6391    4.4104    0.0000 C   0  0  0  0  0  0  0  0  0  0  0  0
    7.6391    3.5854    0.0000 C   0  0  0  0  0  0  0  0  0  0  0  0
    6.9246    4.8229    0.0000 C   0  0  0  0  0  0  0  0  0  0  0  0
    6.2102    4.4104    0.0000 C   0  0  0  0  0  0  0  0  0  0  0  0
    6.2102    3.5854    0.0000 N   0  0  0  0  0  0  0  0  0  0  0  0
    6.9246    3.1729    0.0000 C   0  0  0  0  0  0  0  0  0  0  0  0
    6.9246    2.3479    0.0000 C   0  0  0  0  0  0  0  0  0  0  0  0
    7.6391    1.9354    0.0000 C   0  0  0  0  0  0  0  0  0  0  0  0
    7.6391    1.1104    0.0000 C   0  0  0  0  0  0  0  0  0  0  0  0
    8.3536    2.3479    0.0000 C   0  0  0  0  0  0  0  0  0  0  0  0
    5.4957    3.1729    0.0000 C   0  0  0  0  0  0  0  0  0  0  0  0
    5.4957    2.3479    0.0000 C   0  0  0  0  0  0  0  0  0  0  0  0
    4.7812    1.9354    0.0000 C   0  0  0  0  0  0  0  0  0  0  0  0
    4.0668    2.3479    0.0000 C   0  0  0  0  0  0  0  0  0  0  0  0
    3.3523    1.9354    0.0000 C   0  0  0  0  0  0  0  0  0  0  0  0
    3.3523    1.1104    0.0000 N   0  0  0  0  0  0  0  0  0  0  0  0
    2.6378    0.6979    0.0000 C   0  0  0  0  0  0  0  0  0  0  0  0
    2.6378   -0.1271    0.0000 N   0  0  0  0  0  0  0  0  0  0  0  0
    3.3523   -0.5396    0.0000 C   0  0  0  0  0  0  0  0  0  0  0  0
    3.3523   -1.3646    0.0000 C   0  0  0  0  0  0  0  0  0  0  0  0
    2.6378   -1.7771    0.0000 O   0  0  0  0  0  0  0  0  0  0  0  0
    1.9233   -1.3646    0.0000 C   0  0  0  0  0  0  0  0  0  0  0  0
    1.9233   -0.5396    0.0000 C   0  0  0  0  0  0  0  0  0  0  0  0
    1.9233    1.1104    0.0000 C   0  0  0  0  0  0  0  0  0  0  0  0
    1.1387    0.8555    0.0000 N   0  0  0  0  0  0  0  0  0  0  0  0
    0.6538    1.5229    0.0000 C   0  0  0  0  0  0  0  0  0  0  0  0
   -0.1712    1.5229    0.0000 C   0  0  0  0  0  0  0  0  0  0  0  0
   -0.5837    0.8085    0.0000 N   0  0  0  0  0  0  0  0  0  0  0  0
   -0.1712    0.0940    0.0000 C   0  0  0  0  0  0  0  0  0  0  0  0
   -1.4087    0.8085    0.0000 C   0  0  0  0  0  0  0  0  0  0  0  0
   -1.8212    0.0940    0.0000 N   0  0  0  0  0  0  0  0  0  0  0  0
   -2.6462    0.0940    0.0000 C   0  0  0  0  0  0  0  0  0  0  0  0
   -3.0587    0.8085    0.0000 C   0  0  0  0  0  0  0  0  0  0  0  0
   -3.8837    0.8085    0.0000 C   0  0  0  0  0  0  0  0  0  0  0  0
   -4.2962    0.0940    0.0000 O   0  0  0  0  0  0  0  0  0  0  0  0
   -4.2962    1.5229    0.0000 N   0  0  0  0  0  0  0  0  0  0  0  0
   -5.1212    1.5229    0.0000 O   0  0  0  0  0  0  0  0  0  0  0  0
   -2.6462    1.5229    0.0000 C   0  0  0  0  0  0  0  0  0  0  0  0
   -1.8212    1.5229    0.0000 N   0  0  0  0  0  0  0  0  0  0  0  0
    1.1387    2.1904    0.0000 N   0  0  0  0  0  0  0  0  0  0  0  0
    0.8838    2.9750    0.0000 C   0  0  0  0  0  0  0  0  0  0  0  0
    1.9233    1.9354    0.0000 C   0  0  0  0  0  0  0  0  0  0  0  0
    2.6378    2.3479    0.0000 N   0  0  0  0  0  0  0  0  0  0  0  0
    4.0668    3.1729    0.0000 C   0  0  0  0  0  0  0  0  0  0  0  0
    4.7812    3.5854    0.0000 C   0  0  0  0  0  0  0  0  0  0  0  0
  1  2  1  0  0  0  0
  2  3  1  0  0  0  0
  2  4  2  0  0  0  0
  4  5  1  0  0  0  0
  5  6  1  0  0  0  0
  6  7  1  0  0  0  0
  7  8  1  0  0  0  0
  8  9  2  0  0  0  0
  9 10  1  0  0  0  0
  9 11  1  0  0  0  0
  6 12  1  0  0  0  0
 12 13  4  0  0  0  0
 13 14  4  0  0  0  0
 14 15  4  0  0  0  0
 15 16  1  0  0  0  0
 16 17  4  0  0  0  0
 17 18  4  0  0  0  0
 18 19  1  0  0  0  0
 19 20  1  0  0  0  0
 20 21  1  0  0  0  0
 21 22  1  0  0  0  0
 22 23  1  0  0  0  0
 23 24  1  0  0  0  0
 19 24  1  0  0  0  0
 18 25  4  0  0  0  0
 25 26  4  0  0  0  0
 26 27  4  0  0  0  0
 27 28  1  0  0  0  0
 28 29  1  0  0  0  0
 29 30  1  0  0  0  0
 29 31  1  0  0  0  0
 31 32  4  0  0  0  0
 32 33  4  0  0  0  0
 33 34  4  0  0  0  0
 34 35  1  0  0  0  0
 35 36  2  0  0  0  0
 35 37  1  0  0  0  0
 37 38  1  0  0  0  0
 34 39  4  0  0  0  0
 39 40  4  0  0  0  0
 31 40  4  0  0  0  0
 27 41  4  0  0  0  0
 41 42  1  0  0  0  0
 41 43  4  0  0  0  0
 25 43  4  0  0  0  0
 43 44  4  0  0  0  0
 16 44  4  0  0  0  0
 15 45  4  0  0  0  0
 45 46  4  0  0  0  0
 12 46  4  0  0  0  0
M  END
>  <Molecule ChEMBL ID>
CHEMBL3827398

>  <Compound Key>
10r

>  <Document ChEMBL ID>
CHEMBL3826921

>  <HDAC1>
1

$$$$

  Mrv1808 03272221002D          

 33 35  0  0  0  0            999 V2000
    1.9908   -7.6407    0.0000 C   0  0  0  0  0  0  0  0  0  0  0  0
    1.2763   -7.2282    0.0000 O   0  0  0  0  0  0  0  0  0  0  0  0
    1.2763   -6.4032    0.0000 C   0  0  0  0  0  0  0  0  0  0  0  0
    0.5619   -5.9907    0.0000 C   0  0  0  0  0  0  0  0  0  0  0  0
    0.5619   -5.1657    0.0000 C   0  0  0  0  0  0  0  0  0  0  0  0
    1.2763   -4.7532    0.0000 C   0  0  0  0  0  0  0  0  0  0  0  0
    1.2763   -3.9282    0.0000 N   0  0  0  0  0  0  0  0  0  0  0  0
    0.5619   -3.5157    0.0000 C   0  0  0  0  0  0  0  0  0  0  0  0
   -0.1526   -3.9282    0.0000 C   0  0  0  0  0  0  0  0  0  0  0  0
   -0.2388   -4.7486    0.0000 N   0  0  0  0  0  0  0  0  0  0  0  0
   -1.0458   -4.9202    0.0000 O   0  0  0  0  0  0  0  0  0  0  0  0
   -1.4583   -4.2057    0.0000 C   0  0  0  0  0  0  0  0  0  0  0  0
   -2.2788   -4.1195    0.0000 C   0  0  0  0  0  0  0  0  0  0  0  0
   -2.7637   -4.7869    0.0000 C   0  0  0  0  0  0  0  0  0  0  0  0
   -3.5842   -4.7007    0.0000 C   0  0  0  0  0  0  0  0  0  0  0  0
   -3.9198   -3.9470    0.0000 C   0  0  0  0  0  0  0  0  0  0  0  0
   -3.4348   -3.2795    0.0000 C   0  0  0  0  0  0  0  0  0  0  0  0
   -3.7704   -2.5259    0.0000 F   0  0  0  0  0  0  0  0  0  0  0  0
   -2.6144   -3.3658    0.0000 C   0  0  0  0  0  0  0  0  0  0  0  0
   -0.9063   -3.5926    0.0000 N   0  0  0  0  0  0  0  0  0  0  0  0
    1.9908   -3.5157    0.0000 C   0  0  0  0  0  0  0  0  0  0  0  0
    1.9908   -2.6907    0.0000 O   0  0  0  0  0  0  0  0  0  0  0  0
    2.7053   -3.9282    0.0000 C   0  0  0  0  0  0  0  0  0  0  0  0
    3.4197   -3.5157    0.0000 C   0  0  0  0  0  0  0  0  0  0  0  0
    4.1342   -3.9282    0.0000 C   0  0  0  0  0  0  0  0  0  0  0  0
    4.8487   -3.5157    0.0000 C   0  0  0  0  0  0  0  0  0  0  0  0
    5.5632   -3.9282    0.0000 C   0  0  0  0  0  0  0  0  0  0  0  0
    6.2776   -3.5157    0.0000 C   0  0  0  0  0  0  0  0  0  0  0  0
    6.2776   -2.6907    0.0000 O   0  0  0  0  0  0  0  0  0  0  0  0
    6.9921   -3.9282    0.0000 N   0  0  0  0  0  0  0  0  0  0  0  0
    7.7066   -3.5157    0.0000 O   0  0  0  0  0  0  0  0  0  0  0  0
    1.9908   -5.1657    0.0000 C   0  0  0  0  0  0  0  0  0  0  0  0
    1.9908   -5.9907    0.0000 C   0  0  0  0  0  0  0  0  0  0  0  0
  1  2  1  0  0  0  0
  2  3  1  0  0  0  0
  3  4  4  0  0  0  0
  4  5  4  0  0  0  0
  5  6  4  0  0  0  0
  6  7  1  0  0  0  0
  7  8  1  0  0  0  0
  8  9  1  0  0  0  0
  9 10  4  0  0  0  0
 10 11  4  0  0  0  0
 11 12  4  0  0  0  0
 12 13  1  0  0  0  0
 13 14  4  0  0  0  0
 14 15  4  0  0  0  0
 15 16  4  0  0  0  0
 16 17  4  0  0  0  0
 17 18  1  0  0  0  0
 17 19  4  0  0  0  0
 13 19  4  0  0  0  0
 12 20  4  0  0  0  0
  9 20  4  0  0  0  0
  7 21  1  0  0  0  0
 21 22  2  0  0  0  0
 21 23  1  0  0  0  0
 23 24  1  0  0  0  0
 24 25  1  0  0  0  0
 25 26  1  0  0  0  0
 26 27  1  0  0  0  0
 27 28  1  0  0  0  0
 28 29  2  0  0  0  0
 28 30  1  0  0  0  0
 30 31  1  0  0  0  0
  6 32  4  0  0  0  0
 32 33  4  0  0  0  0
  3 33  4  0  0  0  0
M  END
>  <Molecule ChEMBL ID>
CHEMBL4545154

>  <Compound Key>
11c

>  <Document ChEMBL ID>
CHEMBL4308883

>  <HDAC1>
1

$$$$

  Mrv1808 03272221002D          

 19 19  0  0  0  0            999 V2000
    5.0013   -0.4125    0.0000 O   0  0  0  0  0  0  0  0  0  0  0  0
    5.0013   -1.2375    0.0000 C   0  0  0  0  0  0  0  0  0  0  0  0
    4.2868   -1.6500    0.0000 C   0  0  0  0  0  0  0  0  0  0  0  0
    3.5724   -1.2375    0.0000 C   0  0  0  0  0  0  0  0  0  0  0  0
    2.8579   -1.6500    0.0000 C   0  0  0  0  0  0  0  0  0  0  0  0
    2.1434   -1.2375    0.0000 C   0  0  0  0  0  0  0  0  0  0  0  0
    1.4289   -1.6500    0.0000 C   0  0  0  0  0  0  0  0  0  0  0  0
    0.7145   -1.2375    0.0000 C   0  0  0  0  0  0  0  0  0  0  0  0
    0.0000   -1.6500    0.0000 C   0  0  0  0  0  0  0  0  0  0  0  0
    0.0000   -2.4750    0.0000 O   0  0  0  0  0  0  0  0  0  0  0  0
   -0.7145   -1.2375    0.0000 N   0  0  0  0  0  0  0  0  0  0  0  0
   -1.4289   -1.6500    0.0000 C   0  0  0  0  0  0  0  0  0  0  0  0
   -1.4289   -2.4750    0.0000 C   0  0  0  0  0  0  0  0  0  0  0  0
   -2.1434   -2.8875    0.0000 C   0  0  0  0  0  0  0  0  0  0  0  0
   -2.8579   -2.4750    0.0000 C   0  0  0  0  0  0  0  0  0  0  0  0
   -2.8579   -1.6500    0.0000 C   0  0  0  0  0  0  0  0  0  0  0  0
   -2.1434   -1.2375    0.0000 C   0  0  0  0  0  0  0  0  0  0  0  0
    5.7158   -1.6500    0.0000 N   0  0  0  0  0  0  0  0  0  0  0  0
    6.4302   -1.2375    0.0000 O   0  0  0  0  0  0  0  0  0  0  0  0
  1  2  2  0  0  0  0
  2  3  1  0  0  0  0
  3  4  1  0  0  0  0
  4  5  1  0  0  0  0
  5  6  1  0  0  0  0
  6  7  1  0  0  0  0
  7  8  1  0  0  0  0
  8  9  1  0  0  0  0
  9 10  2  0  0  0  0
  9 11  1  0  0  0  0
 11 12  1  0  0  0  0
 12 13  4  0  0  0  0
 13 14  4  0  0  0  0
 14 15  4  0  0  0  0
 15 16  4  0  0  0  0
 16 17  4  0  0  0  0
 12 17  4  0  0  0  0
  2 18  1  0  0  0  0
 18 19  1  0  0  0  0
M  END
>  <Molecule ChEMBL ID>
CHEMBL98

>  <Compound Key>
SAHA, Vorinostat

>  <Document ChEMBL ID>
CHEMBL2380312

>  <HDAC1>
1

$$$$

  Mrv1808 03272221002D          

 27 29  0  0  0  0            999 V2000
   -7.1447   -4.9500    0.0000 O   0  0  0  0  0  0  0  0  0  0  0  0
   -7.1447   -4.1250    0.0000 C   0  0  0  0  0  0  0  0  0  0  0  0
   -6.4302   -3.7125    0.0000 C   0  0  0  0  0  0  0  0  0  0  0  0
   -6.4302   -2.8875    0.0000 C   0  0  0  0  0  0  0  0  0  0  0  0
   -5.7158   -2.4750    0.0000 C   0  0  0  0  0  0  0  0  0  0  0  0
   -5.7158   -1.6500    0.0000 C   0  0  0  0  0  0  0  0  0  0  0  0
   -5.0013   -1.2375    0.0000 C   0  0  0  0  0  0  0  0  0  0  0  0
   -4.2868   -1.6500    0.0000 C   0  0  0  0  0  0  0  0  0  0  0  0
   -3.5724   -1.2375    0.0000 C   0  0  0  0  0  0  0  0  0  0  0  0
   -2.8579   -1.6500    0.0000 C   0  0  0  0  0  0  0  0  0  0  0  0
   -2.1434   -1.2375    0.0000 N   0  0  0  0  0  0  0  0  0  0  0  0
   -1.4289   -1.6500    0.0000 C   0  0  0  0  0  0  0  0  0  0  0  0
   -1.4289   -2.4750    0.0000 O   0  0  0  0  0  0  0  0  0  0  0  0
   -0.7145   -1.2375    0.0000 C   0  0  0  0  0  0  0  0  0  0  0  0
    0.0000   -1.6500    0.0000 C   0  0  0  0  0  0  0  0  0  0  0  0
    0.7145   -1.2375    0.0000 C   0  0  0  0  0  0  0  0  0  0  0  0
    0.7145   -0.4125    0.0000 C   0  0  0  0  0  0  0  0  0  0  0  0
    0.0000   -0.0000    0.0000 C   0  0  0  0  0  0  0  0  0  0  0  0
   -0.7145   -0.4125    0.0000 C   0  0  0  0  0  0  0  0  0  0  0  0
    0.0000    0.8250    0.0000 O   0  0  0  0  0  0  0  0  0  0  0  0
    0.7145    1.2375    0.0000 C   0  0  0  0  0  0  0  0  0  0  0  0
    1.4289    0.8250    0.0000 C   0  0  0  0  0  0  0  0  0  0  0  0
    1.4289   -0.0000    0.0000 O   0  0  0  0  0  0  0  0  0  0  0  0
   -4.2868   -2.4750    0.0000 C   0  0  0  0  0  0  0  0  0  0  0  0
   -5.0013   -2.8875    0.0000 C   0  0  0  0  0  0  0  0  0  0  0  0
   -7.8592   -3.7125    0.0000 N   0  0  0  0  0  0  0  0  0  0  0  0
   -8.5737   -4.1250    0.0000 O   0  0  0  0  0  0  0  0  0  0  0  0
  1  2  2  0  0  0  0
  2  3  1  0  0  0  0
  3  4  2  0  0  0  0
  4  5  1  0  0  0  0
  5  6  4  0  0  0  0
  6  7  4  0  0  0  0
  7  8  4  0  0  0  0
  8  9  1  0  0  0  0
  9 10  1  0  0  0  0
 10 11  1  0  0  0  0
 11 12  1  0  0  0  0
 12 13  2  0  0  0  0
 12 14  1  0  0  0  0
 14 15  4  0  0  0  0
 15 16  4  0  0  0  0
 16 17  4  0  0  0  0
 17 18  4  0  0  0  0
 18 19  4  0  0  0  0
 14 19  4  0  0  0  0
 18 20  1  0  0  0  0
 20 21  1  0  0  0  0
 21 22  1  0  0  0  0
 22 23  1  0  0  0  0
 17 23  1  0  0  0  0
  8 24  4  0  0  0  0
 24 25  4  0  0  0  0
  5 25  4  0  0  0  0
  2 26  1  0  0  0  0
 26 27  1  0  0  0  0
M  END
>  <Molecule ChEMBL ID>
CHEMBL4075984

>  <Compound Key>
15d

>  <Document ChEMBL ID>
CHEMBL4033641

>  <HDAC1>
0

$$$$

  Mrv1808 03272221002D          

 25 27  0  0  0  0            999 V2000
    3.5724    2.0625    0.0000 C   0  0  0  0  0  0  0  0  0  0  0  0
    3.5724    1.2375    0.0000 O   0  0  0  0  0  0  0  0  0  0  0  0
    2.8579    0.8250    0.0000 C   0  0  0  0  0  0  0  0  0  0  0  0
    2.8579   -0.0000    0.0000 C   0  0  0  0  0  0  0  0  0  0  0  0
    2.1434   -0.4125    0.0000 C   0  0  0  0  0  0  0  0  0  0  0  0
    1.4289   -0.0000    0.0000 C   0  0  0  0  0  0  0  0  0  0  0  0
    0.7145   -0.4125    0.0000 C   0  0  0  0  0  0  0  0  0  0  0  0
    0.7145   -1.2375    0.0000 N   0  0  0  0  0  0  0  0  0  0  0  0
    1.3819   -1.7224    0.0000 C   0  0  0  0  0  0  0  0  0  0  0  0
    1.1270   -2.5070    0.0000 C   0  0  0  0  0  0  0  0  0  0  0  0
    0.3020   -2.5070    0.0000 N   0  0  0  0  0  0  0  0  0  0  0  0
   -0.1830   -3.1745    0.0000 C   0  0  0  0  0  0  0  0  0  0  0  0
    0.1526   -3.9282    0.0000 C   0  0  0  0  0  0  0  0  0  0  0  0
   -0.3323   -4.5956    0.0000 C   0  0  0  0  0  0  0  0  0  0  0  0
   -1.1528   -4.5094    0.0000 C   0  0  0  0  0  0  0  0  0  0  0  0
   -1.6377   -5.1768    0.0000 C   0  0  0  0  0  0  0  0  0  0  0  0
   -1.3022   -5.9305    0.0000 O   0  0  0  0  0  0  0  0  0  0  0  0
   -2.4582   -5.0906    0.0000 N   0  0  0  0  0  0  0  0  0  0  0  0
   -2.9431   -5.7580    0.0000 O   0  0  0  0  0  0  0  0  0  0  0  0
   -1.4884   -3.7557    0.0000 C   0  0  0  0  0  0  0  0  0  0  0  0
   -1.0034   -3.0882    0.0000 C   0  0  0  0  0  0  0  0  0  0  0  0
    0.0470   -1.7224    0.0000 C   0  0  0  0  0  0  0  0  0  0  0  0
   -0.7376   -1.4675    0.0000 O   0  0  0  0  0  0  0  0  0  0  0  0
    1.4289    0.8250    0.0000 C   0  0  0  0  0  0  0  0  0  0  0  0
    2.1434    1.2375    0.0000 C   0  0  0  0  0  0  0  0  0  0  0  0
  1  2  1  0  0  0  0
  2  3  1  0  0  0  0
  3  4  4  0  0  0  0
  4  5  4  0  0  0  0
  5  6  4  0  0  0  0
  6  7  1  0  0  0  0
  7  8  1  0  0  0  0
  8  9  1  0  0  0  0
  9 10  1  0  0  0  0
 10 11  1  0  0  0  0
 11 12  1  0  0  0  0
 12 13  4  0  0  0  0
 13 14  4  0  0  0  0
 14 15  4  0  0  0  0
 15 16  1  0  0  0  0
 16 17  2  0  0  0  0
 16 18  1  0  0  0  0
 18 19  1  0  0  0  0
 15 20  4  0  0  0  0
 20 21  4  0  0  0  0
 12 21  4  0  0  0  0
 11 22  1  0  0  0  0
  8 22  1  0  0  0  0
 22 23  2  0  0  0  0
  6 24  4  0  0  0  0
 24 25  4  0  0  0  0
  3 25  4  0  0  0  0
M  END
>  <Molecule ChEMBL ID>
CHEMBL3334996

>  <Compound Key>
1e

>  <Document ChEMBL ID>
CHEMBL3351615

>  <HDAC1>
0

$$$$

  Mrv1808 03272221002D          

 24 26  0  0  0  0            999 V2000
    4.7812    4.4104    0.0000 O   0  0  0  0  0  0  0  0  0  0  0  0
    4.7812    3.5854    0.0000 C   0  0  0  0  0  0  0  0  0  0  0  0
    4.0668    3.1729    0.0000 C   0  0  0  0  0  0  0  0  0  0  0  0
    4.0668    2.3479    0.0000 C   0  0  0  0  0  0  0  0  0  0  0  0
    3.3523    1.9354    0.0000 C   0  0  0  0  0  0  0  0  0  0  0  0
    3.3523    1.1104    0.0000 C   0  0  0  0  0  0  0  0  0  0  0  0
    2.6378    0.6979    0.0000 C   0  0  0  0  0  0  0  0  0  0  0  0
    1.9233    1.1104    0.0000 C   0  0  0  0  0  0  0  0  0  0  0  0
    1.9233    1.9354    0.0000 C   0  0  0  0  0  0  0  0  0  0  0  0
    1.1387    2.1904    0.0000 C   0  0  0  0  0  0  0  0  0  0  0  0
    0.6538    1.5229    0.0000 C   0  0  0  0  0  0  0  0  0  0  0  0
    1.1387    0.8555    0.0000 N   0  0  0  0  0  0  0  0  0  0  0  0
    0.8838    0.0709    0.0000 S   0  0  0  0  0  0  0  0  0  0  0  0
    1.6684   -0.1841    0.0000 O   0  0  0  0  0  0  0  0  0  0  0  0
    0.0992    0.3258    0.0000 O   0  0  0  0  0  0  0  0  0  0  0  0
    0.6288   -0.7137    0.0000 C   0  0  0  0  0  0  0  0  0  0  0  0
    1.1809   -1.3268    0.0000 C   0  0  0  0  0  0  0  0  0  0  0  0
    0.9259   -2.1115    0.0000 C   0  0  0  0  0  0  0  0  0  0  0  0
    0.1190   -2.2830    0.0000 C   0  0  0  0  0  0  0  0  0  0  0  0
   -0.4331   -1.6699    0.0000 C   0  0  0  0  0  0  0  0  0  0  0  0
   -0.1781   -0.8853    0.0000 C   0  0  0  0  0  0  0  0  0  0  0  0
    2.6378    2.3479    0.0000 C   0  0  0  0  0  0  0  0  0  0  0  0
    5.4957    3.1729    0.0000 N   0  0  0  0  0  0  0  0  0  0  0  0
    6.2102    3.5854    0.0000 O   0  0  0  0  0  0  0  0  0  0  0  0
  1  2  2  0  0  0  0
  2  3  1  0  0  0  0
  3  4  2  0  0  0  0
  4  5  1  0  0  0  0
  5  6  4  0  0  0  0
  6  7  4  0  0  0  0
  7  8  4  0  0  0  0
  8  9  4  0  0  0  0
  9 10  4  0  0  0  0
 10 11  4  0  0  0  0
 11 12  4  0  0  0  0
  8 12  4  0  0  0  0
 12 13  1  0  0  0  0
 13 14  2  0  0  0  0
 13 15  2  0  0  0  0
 13 16  1  0  0  0  0
 16 17  4  0  0  0  0
 17 18  4  0  0  0  0
 18 19  4  0  0  0  0
 19 20  4  0  0  0  0
 20 21  4  0  0  0  0
 16 21  4  0  0  0  0
  9 22  4  0  0  0  0
  5 22  4  0  0  0  0
  2 23  1  0  0  0  0
 23 24  1  0  0  0  0
M  END
>  <Molecule ChEMBL ID>
CHEMBL2048746

>  <Compound Key>
8, MPT0E014

>  <Document ChEMBL ID>
CHEMBL2046324

>  <HDAC1>
0

$$$$

  Mrv1808 03272221002D          

 41 45  0  0  0  0            999 V2000
   -7.8037    2.1508    0.0000 C   0  0  0  0  0  0  0  0  0  0  0  0
   -7.4681    1.3971    0.0000 O   0  0  0  0  0  0  0  0  0  0  0  0
   -6.6476    1.3109    0.0000 C   0  0  0  0  0  0  0  0  0  0  0  0
   -6.1627    1.9783    0.0000 C   0  0  0  0  0  0  0  0  0  0  0  0
   -5.3422    1.8921    0.0000 C   0  0  0  0  0  0  0  0  0  0  0  0
   -4.8573    2.5595    0.0000 N   0  0  0  0  0  0  0  0  0  0  0  0
   -5.1929    3.3132    0.0000 C   0  0  0  0  0  0  0  0  0  0  0  0
   -6.0133    3.3995    0.0000 N   0  0  0  0  0  0  0  0  0  0  0  0
   -6.3489    4.1531    0.0000 C   0  0  0  0  0  0  0  0  0  0  0  0
   -5.8640    4.8206    0.0000 N   0  0  0  0  0  0  0  0  0  0  0  0
   -5.0435    4.7343    0.0000 C   0  0  0  0  0  0  0  0  0  0  0  0
   -4.5586    5.4018    0.0000 C   0  0  0  0  0  0  0  0  0  0  0  0
   -3.7381    5.3155    0.0000 C   0  0  0  0  0  0  0  0  0  0  0  0
   -3.4025    4.5619    0.0000 C   0  0  0  0  0  0  0  0  0  0  0  0
   -2.5820    4.4756    0.0000 C   0  0  0  0  0  0  0  0  0  0  0  0
   -2.0300    5.0887    0.0000 C   0  0  0  0  0  0  0  0  0  0  0  0
   -1.2763    4.7532    0.0000 N   0  0  0  0  0  0  0  0  0  0  0  0
   -0.5619    5.1657    0.0000 C   0  0  0  0  0  0  0  0  0  0  0  0
    0.1526    4.7532    0.0000 C   0  0  0  0  0  0  0  0  0  0  0  0
    0.8671    5.1657    0.0000 C   0  0  0  0  0  0  0  0  0  0  0  0
    1.5815    4.7532    0.0000 C   0  0  0  0  0  0  0  0  0  0  0  0
    2.2960    5.1657    0.0000 C   0  0  0  0  0  0  0  0  0  0  0  0
    3.0105    4.7532    0.0000 C   0  0  0  0  0  0  0  0  0  0  0  0
    3.7250    5.1657    0.0000 C   0  0  0  0  0  0  0  0  0  0  0  0
    3.7250    5.9907    0.0000 O   0  0  0  0  0  0  0  0  0  0  0  0
    4.4394    4.7532    0.0000 N   0  0  0  0  0  0  0  0  0  0  0  0
    5.1539    5.1657    0.0000 O   0  0  0  0  0  0  0  0  0  0  0  0
   -1.3626    3.9327    0.0000 N   0  0  0  0  0  0  0  0  0  0  0  0
   -2.1695    3.7612    0.0000 N   0  0  0  0  0  0  0  0  0  0  0  0
   -3.8874    3.8944    0.0000 C   0  0  0  0  0  0  0  0  0  0  0  0
   -4.7079    3.9807    0.0000 C   0  0  0  0  0  0  0  0  0  0  0  0
   -5.0067    1.1384    0.0000 C   0  0  0  0  0  0  0  0  0  0  0  0
   -5.4916    0.4710    0.0000 C   0  0  0  0  0  0  0  0  0  0  0  0
   -6.3121    0.5572    0.0000 C   0  0  0  0  0  0  0  0  0  0  0  0
   -6.7970   -0.1102    0.0000 O   0  0  0  0  0  0  0  0  0  0  0  0
   -7.6175   -0.0240    0.0000 C   0  0  0  0  0  0  0  0  0  0  0  0
   -8.1024   -0.6914    0.0000 C   0  0  0  0  0  0  0  0  0  0  0  0
   -8.9229   -0.6052    0.0000 C   0  0  0  0  0  0  0  0  0  0  0  0
   -9.2584    0.1485    0.0000 C   0  0  0  0  0  0  0  0  0  0  0  0
   -8.7735    0.8159    0.0000 C   0  0  0  0  0  0  0  0  0  0  0  0
   -7.9530    0.7297    0.0000 C   0  0  0  0  0  0  0  0  0  0  0  0
  1  2  1  0  0  0  0
  2  3  1  0  0  0  0
  3  4  4  0  0  0  0
  4  5  4  0  0  0  0
  5  6  1  0  0  0  0
  6  7  1  0  0  0  0
  7  8  4  0  0  0  0
  8  9  4  0  0  0  0
  9 10  4  0  0  0  0
 10 11  4  0  0  0  0
 11 12  4  0  0  0  0
 12 13  4  0  0  0  0
 13 14  4  0  0  0  0
 14 15  1  0  0  0  0
 15 16  4  0  0  0  0
 16 17  4  0  0  0  0
 17 18  1  0  0  0  0
 18 19  1  0  0  0  0
 19 20  1  0  0  0  0
 20 21  1  0  0  0  0
 21 22  1  0  0  0  0
 22 23  1  0  0  0  0
 23 24  1  0  0  0  0
 24 25  2  0  0  0  0
 24 26  1  0  0  0  0
 26 27  1  0  0  0  0
 17 28  4  0  0  0  0
 28 29  4  0  0  0  0
 15 29  4  0  0  0  0
 14 30  4  0  0  0  0
 30 31  4  0  0  0  0
  7 31  4  0  0  0  0
 11 31  4  0  0  0  0
  5 32  4  0  0  0  0
 32 33  4  0  0  0  0
 33 34  4  0  0  0  0
  3 34  4  0  0  0  0
 34 35  1  0  0  0  0
 35 36  1  0  0  0  0
 36 37  4  0  0  0  0
 37 38  4  0  0  0  0
 38 39  4  0  0  0  0
 39 40  4  0  0  0  0
 40 41  4  0  0  0  0
 36 41  4  0  0  0  0
M  END
>  <Molecule ChEMBL ID>
CHEMBL3982710

>  <Compound Key>
9l

>  <Document ChEMBL ID>
CHEMBL3870325

>  <HDAC1>
0

$$$$

  Mrv1808 03272221002D          

 24 26  0  0  0  0            999 V2000
    2.1434    1.2375    0.0000 O   0  0  0  0  0  0  0  0  0  0  0  0
    1.4289    0.8250    0.0000 C   0  0  0  0  0  0  0  0  0  0  0  0
    0.7145    1.2375    0.0000 N   0  0  0  0  0  0  0  0  0  0  0  0
    0.7145    2.0625    0.0000 O   0  0  0  0  0  0  0  0  0  0  0  0
    1.4289    0.0000    0.0000 C   0  0  0  0  0  0  0  0  0  0  0  0
    2.1434   -0.4125    0.0000 C   0  0  0  0  0  0  0  0  0  0  0  0
    2.1434   -1.2375    0.0000 C   0  0  0  0  0  0  0  0  0  0  0  0
    1.4289   -1.6500    0.0000 C   0  0  0  0  0  0  0  0  0  0  0  0
    1.4289   -2.4750    0.0000 N   0  0  0  0  0  0  0  0  0  0  0  0
    2.0964   -2.9599    0.0000 C   0  0  0  0  0  0  0  0  0  0  0  0
    1.8414   -3.7445    0.0000 C   0  0  0  0  0  0  0  0  0  0  0  0
    1.0164   -3.7445    0.0000 N   0  0  0  0  0  0  0  0  0  0  0  0
    0.5315   -4.4120    0.0000 C   0  0  0  0  0  0  0  0  0  0  0  0
    0.8671   -5.1657    0.0000 C   0  0  0  0  0  0  0  0  0  0  0  0
    0.3822   -5.8331    0.0000 C   0  0  0  0  0  0  0  0  0  0  0  0
    0.7177   -6.5868    0.0000 C   0  0  0  0  0  0  0  0  0  0  0  0
    0.2328   -7.2542    0.0000 C   0  0  0  0  0  0  0  0  0  0  0  0
   -0.5877   -7.1680    0.0000 C   0  0  0  0  0  0  0  0  0  0  0  0
   -0.9232   -6.4143    0.0000 C   0  0  0  0  0  0  0  0  0  0  0  0
   -0.4383   -5.7469    0.0000 C   0  0  0  0  0  0  0  0  0  0  0  0
    0.7615   -2.9599    0.0000 C   0  0  0  0  0  0  0  0  0  0  0  0
   -0.0231   -2.7050    0.0000 O   0  0  0  0  0  0  0  0  0  0  0  0
    0.7145   -1.2375    0.0000 C   0  0  0  0  0  0  0  0  0  0  0  0
    0.7145   -0.4125    0.0000 C   0  0  0  0  0  0  0  0  0  0  0  0
  1  2  2  0  0  0  0
  2  3  1  0  0  0  0
  3  4  1  0  0  0  0
  2  5  1  0  0  0  0
  5  6  4  0  0  0  0
  6  7  4  0  0  0  0
  7  8  4  0  0  0  0
  8  9  1  0  0  0  0
  9 10  1  0  0  0  0
 10 11  1  0  0  0  0
 11 12  1  0  0  0  0
 12 13  1  0  0  0  0
 13 14  1  0  0  0  0
 14 15  1  0  0  0  0
 15 16  4  0  0  0  0
 16 17  4  0  0  0  0
 17 18  4  0  0  0  0
 18 19  4  0  0  0  0
 19 20  4  0  0  0  0
 15 20  4  0  0  0  0
 12 21  1  0  0  0  0
  9 21  1  0  0  0  0
 21 22  2  0  0  0  0
  8 23  4  0  0  0  0
 23 24  4  0  0  0  0
  5 24  4  0  0  0  0
M  END
>  <Molecule ChEMBL ID>
CHEMBL3335007

>  <Compound Key>
1p

>  <Document ChEMBL ID>
CHEMBL3351615

>  <HDAC1>
0

$$$$

  Mrv1808 03272221002D          

 28 30  0  0  0  0            999 V2000
   -6.7326    3.4092    0.0000 C   0  0  0  0  0  0  0  0  0  0  0  0
   -5.9257    3.2377    0.0000 O   0  0  0  0  0  0  0  0  0  0  0  0
   -5.3736    3.8508    0.0000 C   0  0  0  0  0  0  0  0  0  0  0  0
   -5.6286    4.6354    0.0000 C   0  0  0  0  0  0  0  0  0  0  0  0
   -5.0765    5.2485    0.0000 C   0  0  0  0  0  0  0  0  0  0  0  0
   -4.2696    5.0769    0.0000 C   0  0  0  0  0  0  0  0  0  0  0  0
   -4.0146    4.2923    0.0000 C   0  0  0  0  0  0  0  0  0  0  0  0
   -3.2077    4.1208    0.0000 C   0  0  0  0  0  0  0  0  0  0  0  0
   -2.6556    4.7339    0.0000 C   0  0  0  0  0  0  0  0  0  0  0  0
   -1.8487    4.5624    0.0000 C   0  0  0  0  0  0  0  0  0  0  0  0
   -1.5937    3.7777    0.0000 C   0  0  0  0  0  0  0  0  0  0  0  0
   -0.8400    3.4422    0.0000 C   0  0  0  0  0  0  0  0  0  0  0  0
   -0.1256    3.8547    0.0000 N   0  0  0  0  0  0  0  0  0  0  0  0
    0.5889    3.4422    0.0000 C   0  0  0  0  0  0  0  0  0  0  0  0
    0.5889    2.6172    0.0000 O   0  0  0  0  0  0  0  0  0  0  0  0
    1.3034    3.8547    0.0000 C   0  0  0  0  0  0  0  0  0  0  0  0
    2.0178    3.4422    0.0000 C   0  0  0  0  0  0  0  0  0  0  0  0
    2.7323    3.8547    0.0000 C   0  0  0  0  0  0  0  0  0  0  0  0
    3.4468    3.4422    0.0000 C   0  0  0  0  0  0  0  0  0  0  0  0
    4.1613    3.8547    0.0000 C   0  0  0  0  0  0  0  0  0  0  0  0
    4.1613    4.6797    0.0000 O   0  0  0  0  0  0  0  0  0  0  0  0
    4.8757    3.4422    0.0000 N   0  0  0  0  0  0  0  0  0  0  0  0
    5.5902    3.8547    0.0000 O   0  0  0  0  0  0  0  0  0  0  0  0
   -0.9263    2.6217    0.0000 N   0  0  0  0  0  0  0  0  0  0  0  0
   -1.7332    2.4502    0.0000 N   0  0  0  0  0  0  0  0  0  0  0  0
   -2.1457    3.1647    0.0000 C   0  0  0  0  0  0  0  0  0  0  0  0
   -2.9527    3.3362    0.0000 C   0  0  0  0  0  0  0  0  0  0  0  0
   -4.5667    3.6792    0.0000 C   0  0  0  0  0  0  0  0  0  0  0  0
  1  2  1  0  0  0  0
  2  3  1  0  0  0  0
  3  4  4  0  0  0  0
  4  5  4  0  0  0  0
  5  6  4  0  0  0  0
  6  7  4  0  0  0  0
  7  8  1  0  0  0  0
  8  9  4  0  0  0  0
  9 10  4  0  0  0  0
 10 11  4  0  0  0  0
 11 12  4  0  0  0  0
 12 13  1  0  0  0  0
 13 14  1  0  0  0  0
 14 15  2  0  0  0  0
 14 16  1  0  0  0  0
 16 17  1  0  0  0  0
 17 18  1  0  0  0  0
 18 19  1  0  0  0  0
 19 20  1  0  0  0  0
 20 21  2  0  0  0  0
 20 22  1  0  0  0  0
 22 23  1  0  0  0  0
 12 24  4  0  0  0  0
 24 25  4  0  0  0  0
 25 26  4  0  0  0  0
 11 26  4  0  0  0  0
 26 27  4  0  0  0  0
  8 27  4  0  0  0  0
  7 28  4  0  0  0  0
  3 28  4  0  0  0  0
M  STY  1   1 DAT
M  SAL   1  1  25
M  SDT   1 MRV_IMPLICIT_H                                        
M  SDD   1     0.5304   -0.4125    DR    ALL  0       0  
M  SED   1 IMPL_H1
M  END
>  <Molecule ChEMBL ID>
CHEMBL4797623

>  <Compound Key>
15r

>  <Document ChEMBL ID>
CHEMBL4765277

>  <HDAC1>
0

$$$$

  Mrv1808 03272221002D          

 26 28  0  0  0  0            999 V2000
   -0.0788   -4.1221    0.0000 O   0  0  0  0  0  0  0  0  0  0  0  0
   -0.0788   -3.2971    0.0000 C   0  0  0  0  0  0  0  0  0  0  0  0
    0.6357   -2.8846    0.0000 C   0  0  0  0  0  0  0  0  0  0  0  0
    0.6357   -2.0596    0.0000 C   0  0  0  0  0  0  0  0  0  0  0  0
    1.3501   -1.6471    0.0000 C   0  0  0  0  0  0  0  0  0  0  0  0
    1.3501   -0.8221    0.0000 C   0  0  0  0  0  0  0  0  0  0  0  0
    2.0646   -0.4096    0.0000 C   0  0  0  0  0  0  0  0  0  0  0  0
    2.7791   -0.8221    0.0000 C   0  0  0  0  0  0  0  0  0  0  0  0
    3.4935   -0.4096    0.0000 C   0  0  0  0  0  0  0  0  0  0  0  0
    4.2080   -0.8221    0.0000 C   0  0  0  0  0  0  0  0  0  0  0  0
    4.9225   -0.4096    0.0000 N   0  0  0  0  0  0  0  0  0  0  0  0
    5.6370   -0.8221    0.0000 C   0  0  0  0  0  0  0  0  0  0  0  0
    5.6370   -1.6471    0.0000 O   0  0  0  0  0  0  0  0  0  0  0  0
    6.3514   -0.4096    0.0000 C   0  0  0  0  0  0  0  0  0  0  0  0
    6.4377    0.4109    0.0000 C   0  0  0  0  0  0  0  0  0  0  0  0
    7.2446    0.5824    0.0000 N   0  0  0  0  0  0  0  0  0  0  0  0
    7.6571   -0.1320    0.0000 C   0  0  0  0  0  0  0  0  0  0  0  0
    8.4641   -0.3036    0.0000 N   0  0  0  0  0  0  0  0  0  0  0  0
    8.7190   -1.0882    0.0000 C   0  0  0  0  0  0  0  0  0  0  0  0
    8.1670   -1.7013    0.0000 C   0  0  0  0  0  0  0  0  0  0  0  0
    7.3600   -1.5298    0.0000 C   0  0  0  0  0  0  0  0  0  0  0  0
    7.1051   -0.7451    0.0000 C   0  0  0  0  0  0  0  0  0  0  0  0
    2.7791   -1.6471    0.0000 C   0  0  0  0  0  0  0  0  0  0  0  0
    2.0646   -2.0596    0.0000 C   0  0  0  0  0  0  0  0  0  0  0  0
   -0.7933   -2.8846    0.0000 N   0  0  0  0  0  0  0  0  0  0  0  0
   -1.5078   -3.2971    0.0000 O   0  0  0  0  0  0  0  0  0  0  0  0
  1  2  2  0  0  0  0
  2  3  1  0  0  0  0
  3  4  2  0  0  0  0
  4  5  1  0  0  0  0
  5  6  4  0  0  0  0
  6  7  4  0  0  0  0
  7  8  4  0  0  0  0
  8  9  1  0  0  0  0
  9 10  1  0  0  0  0
 10 11  1  0  0  0  0
 11 12  1  0  0  0  0
 12 13  2  0  0  0  0
 12 14  1  0  0  0  0
 14 15  4  0  0  0  0
 15 16  4  0  0  0  0
 16 17  4  0  0  0  0
 17 18  4  0  0  0  0
 18 19  4  0  0  0  0
 19 20  4  0  0  0  0
 20 21  4  0  0  0  0
 21 22  4  0  0  0  0
 14 22  4  0  0  0  0
 17 22  4  0  0  0  0
  8 23  4  0  0  0  0
 23 24  4  0  0  0  0
  5 24  4  0  0  0  0
  2 25  1  0  0  0  0
 25 26  1  0  0  0  0
M  STY  1   1 DAT
M  SAL   1  1  16
M  SDT   1 MRV_IMPLICIT_H                                        
M  SDD   1     0.5304   -0.4125    DR    ALL  0       0  
M  SED   1 IMPL_H1
M  END
>  <Molecule ChEMBL ID>
CHEMBL4093350

>  <Compound Key>
15h

>  <Document ChEMBL ID>
CHEMBL4033641

>  <HDAC1>
0

$$$$

  Mrv1808 03272221002D          

 23 25  0  0  0  0            999 V2000
    2.7512    2.4134    0.0000 O   0  0  0  0  0  0  0  0  0  0  0  0
    2.0367    2.0009    0.0000 C   0  0  0  0  0  0  0  0  0  0  0  0
    1.3222    2.4134    0.0000 N   0  0  0  0  0  0  0  0  0  0  0  0
    1.3222    3.2384    0.0000 O   0  0  0  0  0  0  0  0  0  0  0  0
    2.0367    1.1759    0.0000 C   0  0  0  0  0  0  0  0  0  0  0  0
    2.7512    0.7634    0.0000 C   0  0  0  0  0  0  0  0  0  0  0  0
    2.7512   -0.0616    0.0000 C   0  0  0  0  0  0  0  0  0  0  0  0
    2.0367   -0.4741    0.0000 C   0  0  0  0  0  0  0  0  0  0  0  0
    2.0367   -1.2991    0.0000 N   0  0  0  0  0  0  0  0  0  0  0  0
    2.7041   -1.7840    0.0000 C   0  0  0  0  0  0  0  0  0  0  0  0
    2.4492   -2.5687    0.0000 C   0  0  0  0  0  0  0  0  0  0  0  0
    1.6242   -2.5687    0.0000 N   0  0  0  0  0  0  0  0  0  0  0  0
    1.1393   -3.2361    0.0000 C   0  0  0  0  0  0  0  0  0  0  0  0
    0.3188   -3.1499    0.0000 C   0  0  0  0  0  0  0  0  0  0  0  0
   -0.1661   -3.8173    0.0000 C   0  0  0  0  0  0  0  0  0  0  0  0
   -0.9866   -3.7311    0.0000 C   0  0  0  0  0  0  0  0  0  0  0  0
   -1.3222   -2.9774    0.0000 C   0  0  0  0  0  0  0  0  0  0  0  0
   -0.8372   -2.3099    0.0000 C   0  0  0  0  0  0  0  0  0  0  0  0
   -0.0168   -2.3962    0.0000 C   0  0  0  0  0  0  0  0  0  0  0  0
    1.3693   -1.7840    0.0000 C   0  0  0  0  0  0  0  0  0  0  0  0
    0.5846   -1.5291    0.0000 O   0  0  0  0  0  0  0  0  0  0  0  0
    1.3222   -0.0616    0.0000 C   0  0  0  0  0  0  0  0  0  0  0  0
    1.3222    0.7634    0.0000 C   0  0  0  0  0  0  0  0  0  0  0  0
  1  2  2  0  0  0  0
  2  3  1  0  0  0  0
  3  4  1  0  0  0  0
  2  5  1  0  0  0  0
  5  6  4  0  0  0  0
  6  7  4  0  0  0  0
  7  8  4  0  0  0  0
  8  9  1  0  0  0  0
  9 10  1  0  0  0  0
 10 11  1  0  0  0  0
 11 12  1  0  0  0  0
 12 13  1  0  0  0  0
 13 14  1  0  0  0  0
 14 15  4  0  0  0  0
 15 16  4  0  0  0  0
 16 17  4  0  0  0  0
 17 18  4  0  0  0  0
 18 19  4  0  0  0  0
 14 19  4  0  0  0  0
 12 20  1  0  0  0  0
  9 20  1  0  0  0  0
 20 21  2  0  0  0  0
  8 22  4  0  0  0  0
 22 23  4  0  0  0  0
  5 23  4  0  0  0  0
M  END
>  <Molecule ChEMBL ID>
CHEMBL3334994

>  <Compound Key>
1c

>  <Document ChEMBL ID>
CHEMBL3351615

>  <HDAC1>
0

$$$$

  Mrv1808 03272221002D          

 28 30  0  0  0  0            999 V2000
    0.4161   -5.9016    0.0000 C   0  0  0  0  0  0  0  0  0  0  0  0
   -0.1360   -5.2885    0.0000 O   0  0  0  0  0  0  0  0  0  0  0  0
    0.1190   -4.5039    0.0000 C   0  0  0  0  0  0  0  0  0  0  0  0
   -0.4331   -3.8908    0.0000 C   0  0  0  0  0  0  0  0  0  0  0  0
   -0.1781   -3.1062    0.0000 C   0  0  0  0  0  0  0  0  0  0  0  0
    0.6288   -2.9346    0.0000 C   0  0  0  0  0  0  0  0  0  0  0  0
    0.8838   -2.1500    0.0000 S   0  0  0  0  0  0  0  0  0  0  0  0
    1.6684   -2.4049    0.0000 O   0  0  0  0  0  0  0  0  0  0  0  0
    0.0992   -1.8951    0.0000 O   0  0  0  0  0  0  0  0  0  0  0  0
    1.1387   -1.3654    0.0000 N   0  0  0  0  0  0  0  0  0  0  0  0
    0.6538   -0.6979    0.0000 C   0  0  0  0  0  0  0  0  0  0  0  0
    1.1387   -0.0305    0.0000 C   0  0  0  0  0  0  0  0  0  0  0  0
    1.9233   -0.2854    0.0000 C   0  0  0  0  0  0  0  0  0  0  0  0
    2.6378    0.1271    0.0000 C   0  0  0  0  0  0  0  0  0  0  0  0
    3.3523   -0.2854    0.0000 C   0  0  0  0  0  0  0  0  0  0  0  0
    4.0668    0.1271    0.0000 C   0  0  0  0  0  0  0  0  0  0  0  0
    4.7812   -0.2854    0.0000 C   0  0  0  0  0  0  0  0  0  0  0  0
    5.4957    0.1271    0.0000 C   0  0  0  0  0  0  0  0  0  0  0  0
    5.4957    0.9521    0.0000 O   0  0  0  0  0  0  0  0  0  0  0  0
    6.2102   -0.2854    0.0000 N   0  0  0  0  0  0  0  0  0  0  0  0
    6.9246    0.1271    0.0000 O   0  0  0  0  0  0  0  0  0  0  0  0
    3.3523   -1.1104    0.0000 C   0  0  0  0  0  0  0  0  0  0  0  0
    2.6378   -1.5229    0.0000 C   0  0  0  0  0  0  0  0  0  0  0  0
    1.9233   -1.1104    0.0000 C   0  0  0  0  0  0  0  0  0  0  0  0
    1.1809   -3.5477    0.0000 C   0  0  0  0  0  0  0  0  0  0  0  0
    0.9259   -4.3323    0.0000 C   0  0  0  0  0  0  0  0  0  0  0  0
    1.4780   -4.9454    0.0000 O   0  0  0  0  0  0  0  0  0  0  0  0
    1.2230   -5.7301    0.0000 C   0  0  0  0  0  0  0  0  0  0  0  0
  1  2  1  0  0  0  0
  2  3  1  0  0  0  0
  3  4  4  0  0  0  0
  4  5  4  0  0  0  0
  5  6  4  0  0  0  0
  6  7  1  0  0  0  0
  7  8  2  0  0  0  0
  7  9  2  0  0  0  0
  7 10  1  0  0  0  0
 10 11  4  0  0  0  0
 11 12  4  0  0  0  0
 12 13  4  0  0  0  0
 13 14  4  0  0  0  0
 14 15  4  0  0  0  0
 15 16  1  0  0  0  0
 16 17  2  0  0  0  0
 17 18  1  0  0  0  0
 18 19  2  0  0  0  0
 18 20  1  0  0  0  0
 20 21  1  0  0  0  0
 15 22  4  0  0  0  0
 22 23  4  0  0  0  0
 23 24  4  0  0  0  0
 13 24  4  0  0  0  0
 10 24  4  0  0  0  0
  6 25  4  0  0  0  0
 25 26  4  0  0  0  0
  3 26  4  0  0  0  0
 26 27  1  0  0  0  0
 27 28  1  0  0  0  0
M  END
>  <Molecule ChEMBL ID>
CHEMBL2048750

>  <Compound Key>
12

>  <Document ChEMBL ID>
CHEMBL2046324

>  <HDAC1>
0

$$$$

  Mrv1808 03272221002D          

 46 50  0  0  0  0            999 V2000
    2.1434   -2.8875    0.0000 C   0  0  0  0  0  0  0  0  0  0  0  0
    1.4289   -2.4750    0.0000 O   0  0  0  0  0  0  0  0  0  0  0  0
    1.4289   -1.6500    0.0000 C   0  0  0  0  0  0  0  0  0  0  0  0
    0.7145   -1.2375    0.0000 C   0  0  0  0  0  0  0  0  0  0  0  0
    0.7145   -0.4125    0.0000 C   0  0  0  0  0  0  0  0  0  0  0  0
    0.0000    0.0000    0.0000 C   0  0  0  0  0  0  0  0  0  0  0  0
   -0.7145   -0.4125    0.0000 O   0  0  0  0  0  0  0  0  0  0  0  0
   -1.4289    0.0000    0.0000 C   0  0  0  0  0  0  0  0  0  0  0  0
   -2.1434   -0.4125    0.0000 C   0  0  0  0  0  0  0  0  0  0  0  0
   -2.8579    0.0000    0.0000 C   0  0  0  0  0  0  0  0  0  0  0  0
   -2.8579    0.8250    0.0000 C   0  0  0  0  0  0  0  0  0  0  0  0
   -3.5724    1.2375    0.0000 N   0  0  0  0  0  0  0  0  0  0  0  0
   -3.5724    2.0625    0.0000 C   0  0  0  0  0  0  0  0  0  0  0  0
   -2.8579    2.4750    0.0000 O   0  0  0  0  0  0  0  0  0  0  0  0
   -4.2868    2.4750    0.0000 C   0  0  0  0  0  0  0  0  0  0  0  0
   -5.0013    2.0625    0.0000 N   0  0  0  0  0  0  0  0  0  0  0  0
   -5.7158    2.4750    0.0000 N   0  0  0  0  0  0  0  0  0  0  0  0
   -6.4302    2.0625    0.0000 C   0  0  0  0  0  0  0  0  0  0  0  0
   -6.4302    1.2375    0.0000 C   0  0  0  0  0  0  0  0  0  0  0  0
   -7.1447    0.8250    0.0000 C   0  0  0  0  0  0  0  0  0  0  0  0
   -7.8592    1.2375    0.0000 C   0  0  0  0  0  0  0  0  0  0  0  0
   -7.8592    2.0625    0.0000 C   0  0  0  0  0  0  0  0  0  0  0  0
   -7.1447    2.4750    0.0000 C   0  0  0  0  0  0  0  0  0  0  0  0
   -5.7158    3.3000    0.0000 C   0  0  0  0  0  0  0  0  0  0  0  0
   -5.0013    3.7125    0.0000 C   0  0  0  0  0  0  0  0  0  0  0  0
   -4.2868    3.3000    0.0000 C   0  0  0  0  0  0  0  0  0  0  0  0
   -3.5724    3.7125    0.0000 O   0  0  0  0  0  0  0  0  0  0  0  0
   -2.1434    1.2375    0.0000 C   0  0  0  0  0  0  0  0  0  0  0  0
   -1.4289    0.8250    0.0000 C   0  0  0  0  0  0  0  0  0  0  0  0
    0.0000    0.8250    0.0000 C   0  0  0  0  0  0  0  0  0  0  0  0
    0.7145    1.2375    0.0000 C   0  0  0  0  0  0  0  0  0  0  0  0
    1.4289    0.8250    0.0000 N   0  0  0  0  0  0  0  0  0  0  0  0
    1.4289    0.0000    0.0000 C   0  0  0  0  0  0  0  0  0  0  0  0
    2.1434   -0.4125    0.0000 C   0  0  0  0  0  0  0  0  0  0  0  0
    2.1434   -1.2375    0.0000 C   0  0  0  0  0  0  0  0  0  0  0  0
    2.8579   -1.6500    0.0000 O   0  0  0  0  0  0  0  0  0  0  0  0
    3.5724   -1.2375    0.0000 C   0  0  0  0  0  0  0  0  0  0  0  0
    4.2868   -1.6500    0.0000 C   0  0  0  0  0  0  0  0  0  0  0  0
    5.0013   -1.2375    0.0000 C   0  0  0  0  0  0  0  0  0  0  0  0
    5.7158   -1.6500    0.0000 C   0  0  0  0  0  0  0  0  0  0  0  0
    6.4302   -1.2375    0.0000 C   0  0  0  0  0  0  0  0  0  0  0  0
    7.1447   -1.6500    0.0000 C   0  0  0  0  0  0  0  0  0  0  0  0
    7.8592   -1.2375    0.0000 C   0  0  0  0  0  0  0  0  0  0  0  0
    7.8592   -0.4125    0.0000 O   0  0  0  0  0  0  0  0  0  0  0  0
    8.5737   -1.6500    0.0000 N   0  0  0  0  0  0  0  0  0  0  0  0
    9.2881   -1.2375    0.0000 O   0  0  0  0  0  0  0  0  0  0  0  0
  1  2  1  0  0  0  0
  2  3  1  0  0  0  0
  3  4  4  0  0  0  0
  4  5  4  0  0  0  0
  5  6  4  0  0  0  0
  6  7  1  0  0  0  0
  7  8  1  0  0  0  0
  8  9  4  0  0  0  0
  9 10  4  0  0  0  0
 10 11  4  0  0  0  0
 11 12  1  0  0  0  0
 12 13  1  0  0  0  0
 13 14  2  0  0  0  0
 13 15  1  0  0  0  0
 15 16  4  0  0  0  0
 16 17  4  0  0  0  0
 17 18  1  0  0  0  0
 18 19  4  0  0  0  0
 19 20  4  0  0  0  0
 20 21  4  0  0  0  0
 21 22  4  0  0  0  0
 22 23  4  0  0  0  0
 18 23  4  0  0  0  0
 17 24  4  0  0  0  0
 24 25  4  0  0  0  0
 25 26  4  0  0  0  0
 15 26  4  0  0  0  0
 26 27  2  0  0  0  0
 11 28  4  0  0  0  0
 28 29  4  0  0  0  0
  8 29  4  0  0  0  0
  6 30  4  0  0  0  0
 30 31  4  0  0  0  0
 31 32  4  0  0  0  0
 32 33  4  0  0  0  0
  5 33  4  0  0  0  0
 33 34  4  0  0  0  0
 34 35  4  0  0  0  0
  3 35  4  0  0  0  0
 35 36  1  0  0  0  0
 36 37  1  0  0  0  0
 37 38  1  0  0  0  0
 38 39  1  0  0  0  0
 39 40  1  0  0  0  0
 40 41  1  0  0  0  0
 41 42  1  0  0  0  0
 42 43  1  0  0  0  0
 43 44  2  0  0  0  0
 43 45  1  0  0  0  0
 45 46  1  0  0  0  0
M  END
>  <Molecule ChEMBL ID>
CHEMBL4758378

>  <Compound Key>
14x

>  <Document ChEMBL ID>
CHEMBL4706531

>  <HDAC1>
0

$$$$

  Mrv1808 03272221002D          

 26 27  0  0  0  0            999 V2000
   -1.4289   -4.1250    0.0000 C   0  0  0  0  0  0  0  0  0  0  0  0
   -0.7145   -3.7125    0.0000 O   0  0  0  0  0  0  0  0  0  0  0  0
   -0.7145   -2.8875    0.0000 C   0  0  0  0  0  0  0  0  0  0  0  0
   -1.4289   -2.4750    0.0000 C   0  0  0  0  0  0  0  0  0  0  0  0
   -1.4289   -1.6500    0.0000 C   0  0  0  0  0  0  0  0  0  0  0  0
   -0.7145   -1.2375    0.0000 C   0  0  0  0  0  0  0  0  0  0  0  0
   -0.7145   -0.4125    0.0000 Cl  0  0  0  0  0  0  0  0  0  0  0  0
    0.0000   -1.6500    0.0000 C   0  0  0  0  0  0  0  0  0  0  0  0
    0.0000   -2.4750    0.0000 C   0  0  0  0  0  0  0  0  0  0  0  0
    0.7145   -2.8875    0.0000 C   0  0  0  0  0  0  0  0  0  0  0  0
    0.7145   -3.7125    0.0000 O   0  0  0  0  0  0  0  0  0  0  0  0
    1.4289   -2.4750    0.0000 N   0  0  0  0  0  0  0  0  0  0  0  0
    2.1434   -2.8875    0.0000 C   0  0  0  0  0  0  0  0  0  0  0  0
    2.8579   -2.4750    0.0000 C   0  0  0  0  0  0  0  0  0  0  0  0
    3.5724   -2.8875    0.0000 C   0  0  0  0  0  0  0  0  0  0  0  0
    4.2868   -2.4750    0.0000 C   0  0  0  0  0  0  0  0  0  0  0  0
    5.0013   -2.8875    0.0000 C   0  0  0  0  0  0  0  0  0  0  0  0
    5.0013   -3.7125    0.0000 C   0  0  0  0  0  0  0  0  0  0  0  0
    5.7158   -4.1250    0.0000 C   0  0  0  0  0  0  0  0  0  0  0  0
    5.7158   -4.9500    0.0000 C   0  0  0  0  0  0  0  0  0  0  0  0
    6.4302   -5.3625    0.0000 C   0  0  0  0  0  0  0  0  0  0  0  0
    7.1447   -4.9500    0.0000 O   0  0  0  0  0  0  0  0  0  0  0  0
    6.4302   -6.1875    0.0000 N   0  0  0  0  0  0  0  0  0  0  0  0
    7.1447   -6.6000    0.0000 O   0  0  0  0  0  0  0  0  0  0  0  0
    4.2868   -4.1250    0.0000 C   0  0  0  0  0  0  0  0  0  0  0  0
    3.5724   -3.7125    0.0000 C   0  0  0  0  0  0  0  0  0  0  0  0
  1  2  1  0  0  0  0
  2  3  1  0  0  0  0
  3  4  4  0  0  0  0
  4  5  4  0  0  0  0
  5  6  4  0  0  0  0
  6  7  1  0  0  0  0
  6  8  4  0  0  0  0
  8  9  4  0  0  0  0
  3  9  4  0  0  0  0
  9 10  1  0  0  0  0
 10 11  2  0  0  0  0
 10 12  1  0  0  0  0
 12 13  1  0  0  0  0
 13 14  1  0  0  0  0
 14 15  1  0  0  0  0
 15 16  4  0  0  0  0
 16 17  4  0  0  0  0
 17 18  4  0  0  0  0
 18 19  1  0  0  0  0
 19 20  2  0  0  0  0
 20 21  1  0  0  0  0
 21 22  2  0  0  0  0
 21 23  1  0  0  0  0
 23 24  1  0  0  0  0
 18 25  4  0  0  0  0
 25 26  4  0  0  0  0
 15 26  4  0  0  0  0
M  END
>  <Molecule ChEMBL ID>
CHEMBL4068870

>  <Compound Key>
8

>  <Document ChEMBL ID>
CHEMBL4033641

>  <HDAC1>
0

$$$$

  Mrv1808 03272221002D          

 24 26  0  0  0  0            999 V2000
    2.7512    2.4134    0.0000 O   0  0  0  0  0  0  0  0  0  0  0  0
    2.0367    2.0009    0.0000 C   0  0  0  0  0  0  0  0  0  0  0  0
    1.3222    2.4134    0.0000 N   0  0  0  0  0  0  0  0  0  0  0  0
    1.3222    3.2384    0.0000 O   0  0  0  0  0  0  0  0  0  0  0  0
    2.0367    1.1759    0.0000 C   0  0  0  0  0  0  0  0  0  0  0  0
    2.7512    0.7634    0.0000 C   0  0  0  0  0  0  0  0  0  0  0  0
    2.7512   -0.0616    0.0000 C   0  0  0  0  0  0  0  0  0  0  0  0
    2.0367   -0.4741    0.0000 C   0  0  0  0  0  0  0  0  0  0  0  0
    2.0367   -1.2991    0.0000 N   0  0  0  0  0  0  0  0  0  0  0  0
    2.7041   -1.7840    0.0000 C   0  0  0  0  0  0  0  0  0  0  0  0
    2.4492   -2.5687    0.0000 C   0  0  0  0  0  0  0  0  0  0  0  0
    1.6242   -2.5687    0.0000 N   0  0  0  0  0  0  0  0  0  0  0  0
    1.1393   -3.2361    0.0000 C   0  0  0  0  0  0  0  0  0  0  0  0
    0.3188   -3.1499    0.0000 C   0  0  0  0  0  0  0  0  0  0  0  0
   -0.1661   -3.8173    0.0000 C   0  0  0  0  0  0  0  0  0  0  0  0
   -0.9866   -3.7311    0.0000 C   0  0  0  0  0  0  0  0  0  0  0  0
   -1.3222   -2.9774    0.0000 C   0  0  0  0  0  0  0  0  0  0  0  0
   -2.1426   -2.8911    0.0000 F   0  0  0  0  0  0  0  0  0  0  0  0
   -0.8372   -2.3099    0.0000 C   0  0  0  0  0  0  0  0  0  0  0  0
   -0.0168   -2.3962    0.0000 C   0  0  0  0  0  0  0  0  0  0  0  0
    1.3693   -1.7840    0.0000 C   0  0  0  0  0  0  0  0  0  0  0  0
    0.5846   -1.5291    0.0000 O   0  0  0  0  0  0  0  0  0  0  0  0
    1.3222   -0.0616    0.0000 C   0  0  0  0  0  0  0  0  0  0  0  0
    1.3222    0.7634    0.0000 C   0  0  0  0  0  0  0  0  0  0  0  0
  1  2  2  0  0  0  0
  2  3  1  0  0  0  0
  3  4  1  0  0  0  0
  2  5  1  0  0  0  0
  5  6  4  0  0  0  0
  6  7  4  0  0  0  0
  7  8  4  0  0  0  0
  8  9  1  0  0  0  0
  9 10  1  0  0  0  0
 10 11  1  0  0  0  0
 11 12  1  0  0  0  0
 12 13  1  0  0  0  0
 13 14  1  0  0  0  0
 14 15  4  0  0  0  0
 15 16  4  0  0  0  0
 16 17  4  0  0  0  0
 17 18  1  0  0  0  0
 17 19  4  0  0  0  0
 19 20  4  0  0  0  0
 14 20  4  0  0  0  0
 12 21  1  0  0  0  0
  9 21  1  0  0  0  0
 21 22  2  0  0  0  0
  8 23  4  0  0  0  0
 23 24  4  0  0  0  0
  5 24  4  0  0  0  0
M  END
>  <Molecule ChEMBL ID>
CHEMBL3334995

>  <Compound Key>
1d

>  <Document ChEMBL ID>
CHEMBL3351615

>  <HDAC1>
0

$$$$

  Mrv1808 03272221002D          

 27 29  0  0  0  0            999 V2000
    2.8579    3.3000    0.0000 C   0  0  0  0  0  0  0  0  0  0  0  0
    2.8579    2.4750    0.0000 N   0  0  0  0  0  0  0  0  0  0  0  0
    3.5724    2.0625    0.0000 C   0  0  0  0  0  0  0  0  0  0  0  0
    2.1434    2.0625    0.0000 C   0  0  0  0  0  0  0  0  0  0  0  0
    2.1434    1.2375    0.0000 C   0  0  0  0  0  0  0  0  0  0  0  0
    2.8579    0.8250    0.0000 C   0  0  0  0  0  0  0  0  0  0  0  0
    2.8579   -0.0000    0.0000 C   0  0  0  0  0  0  0  0  0  0  0  0
    2.1434   -0.4125    0.0000 C   0  0  0  0  0  0  0  0  0  0  0  0
    1.4289   -0.0000    0.0000 C   0  0  0  0  0  0  0  0  0  0  0  0
    0.7145   -0.4125    0.0000 C   0  0  0  0  0  0  0  0  0  0  0  0
    0.7145   -1.2375    0.0000 N   0  0  0  0  0  0  0  0  0  0  0  0
    1.3819   -1.7224    0.0000 C   0  0  0  0  0  0  0  0  0  0  0  0
    1.1270   -2.5070    0.0000 C   0  0  0  0  0  0  0  0  0  0  0  0
    0.3020   -2.5070    0.0000 N   0  0  0  0  0  0  0  0  0  0  0  0
   -0.1830   -3.1745    0.0000 C   0  0  0  0  0  0  0  0  0  0  0  0
    0.1526   -3.9282    0.0000 C   0  0  0  0  0  0  0  0  0  0  0  0
   -0.3323   -4.5956    0.0000 C   0  0  0  0  0  0  0  0  0  0  0  0
   -1.1528   -4.5094    0.0000 C   0  0  0  0  0  0  0  0  0  0  0  0
   -1.6377   -5.1768    0.0000 C   0  0  0  0  0  0  0  0  0  0  0  0
   -1.3022   -5.9305    0.0000 O   0  0  0  0  0  0  0  0  0  0  0  0
   -2.4582   -5.0906    0.0000 N   0  0  0  0  0  0  0  0  0  0  0  0
   -2.9431   -5.7580    0.0000 O   0  0  0  0  0  0  0  0  0  0  0  0
   -1.4884   -3.7557    0.0000 C   0  0  0  0  0  0  0  0  0  0  0  0
   -1.0034   -3.0882    0.0000 C   0  0  0  0  0  0  0  0  0  0  0  0
    0.0470   -1.7224    0.0000 C   0  0  0  0  0  0  0  0  0  0  0  0
   -0.7376   -1.4675    0.0000 O   0  0  0  0  0  0  0  0  0  0  0  0
    1.4289    0.8250    0.0000 C   0  0  0  0  0  0  0  0  0  0  0  0
  1  2  1  0  0  0  0
  2  3  1  0  0  0  0
  2  4  1  0  0  0  0
  4  5  1  0  0  0  0
  5  6  4  0  0  0  0
  6  7  4  0  0  0  0
  7  8  4  0  0  0  0
  8  9  4  0  0  0  0
  9 10  1  0  0  0  0
 10 11  1  0  0  0  0
 11 12  1  0  0  0  0
 12 13  1  0  0  0  0
 13 14  1  0  0  0  0
 14 15  1  0  0  0  0
 15 16  4  0  0  0  0
 16 17  4  0  0  0  0
 17 18  4  0  0  0  0
 18 19  1  0  0  0  0
 19 20  2  0  0  0  0
 19 21  1  0  0  0  0
 21 22  1  0  0  0  0
 18 23  4  0  0  0  0
 23 24  4  0  0  0  0
 15 24  4  0  0  0  0
 14 25  1  0  0  0  0
 11 25  1  0  0  0  0
 25 26  2  0  0  0  0
  9 27  4  0  0  0  0
  5 27  4  0  0  0  0
M  END
>  <Molecule ChEMBL ID>
CHEMBL3335001

>  <Compound Key>
1j

>  <Document ChEMBL ID>
CHEMBL3351615

>  <HDAC1>
0

$$$$

  Mrv1808 03272221002D          

 28 30  0  0  0  0            999 V2000
    8.4023    0.2439    0.0000 O   0  0  0  0  0  0  0  0  0  0  0  0
    8.4023   -0.5811    0.0000 C   0  0  0  0  0  0  0  0  0  0  0  0
    7.6879   -0.9936    0.0000 C   0  0  0  0  0  0  0  0  0  0  0  0
    6.9734   -0.5811    0.0000 C   0  0  0  0  0  0  0  0  0  0  0  0
    6.2589   -0.9936    0.0000 C   0  0  0  0  0  0  0  0  0  0  0  0
    5.5445   -0.5811    0.0000 C   0  0  0  0  0  0  0  0  0  0  0  0
    4.8300   -0.9936    0.0000 C   0  0  0  0  0  0  0  0  0  0  0  0
    4.1155   -0.5811    0.0000 C   0  0  0  0  0  0  0  0  0  0  0  0
    3.4010   -0.9936    0.0000 C   0  0  0  0  0  0  0  0  0  0  0  0
    3.4010   -1.8186    0.0000 O   0  0  0  0  0  0  0  0  0  0  0  0
    2.6866   -0.5811    0.0000 N   0  0  0  0  0  0  0  0  0  0  0  0
    1.9721   -0.9936    0.0000 C   0  0  0  0  0  0  0  0  0  0  0  0
    1.8859   -1.8141    0.0000 N   0  0  0  0  0  0  0  0  0  0  0  0
    1.0789   -1.9856    0.0000 N   0  0  0  0  0  0  0  0  0  0  0  0
    0.6664   -1.2711    0.0000 C   0  0  0  0  0  0  0  0  0  0  0  0
   -0.1406   -1.0996    0.0000 C   0  0  0  0  0  0  0  0  0  0  0  0
   -0.3955   -0.3150    0.0000 C   0  0  0  0  0  0  0  0  0  0  0  0
   -1.2025   -0.1435    0.0000 C   0  0  0  0  0  0  0  0  0  0  0  0
   -1.7545   -0.7566    0.0000 C   0  0  0  0  0  0  0  0  0  0  0  0
   -2.5615   -0.5850    0.0000 C   0  0  0  0  0  0  0  0  0  0  0  0
   -2.8164    0.1996    0.0000 N   0  0  0  0  0  0  0  0  0  0  0  0
   -2.2644    0.8127    0.0000 C   0  0  0  0  0  0  0  0  0  0  0  0
   -1.4574    0.6412    0.0000 C   0  0  0  0  0  0  0  0  0  0  0  0
    0.1565    0.2981    0.0000 C   0  0  0  0  0  0  0  0  0  0  0  0
    0.9635    0.1266    0.0000 C   0  0  0  0  0  0  0  0  0  0  0  0
    1.2184   -0.6580    0.0000 C   0  0  0  0  0  0  0  0  0  0  0  0
    9.1168   -0.9936    0.0000 N   0  0  0  0  0  0  0  0  0  0  0  0
    9.8313   -0.5811    0.0000 O   0  0  0  0  0  0  0  0  0  0  0  0
  1  2  2  0  0  0  0
  2  3  1  0  0  0  0
  3  4  1  0  0  0  0
  4  5  1  0  0  0  0
  5  6  1  0  0  0  0
  6  7  1  0  0  0  0
  7  8  1  0  0  0  0
  8  9  1  0  0  0  0
  9 10  2  0  0  0  0
  9 11  1  0  0  0  0
 11 12  1  0  0  0  0
 12 13  4  0  0  0  0
 13 14  4  0  0  0  0
 14 15  4  0  0  0  0
 15 16  4  0  0  0  0
 16 17  4  0  0  0  0
 17 18  1  0  0  0  0
 18 19  4  0  0  0  0
 19 20  4  0  0  0  0
 20 21  4  0  0  0  0
 21 22  4  0  0  0  0
 22 23  4  0  0  0  0
 18 23  4  0  0  0  0
 17 24  4  0  0  0  0
 24 25  4  0  0  0  0
 25 26  4  0  0  0  0
 12 26  4  0  0  0  0
 15 26  4  0  0  0  0
  2 27  1  0  0  0  0
 27 28  1  0  0  0  0
M  STY  1   1 DAT
M  SAL   1  1  14
M  SDT   1 MRV_IMPLICIT_H                                        
M  SDD   1     0.5304   -0.4125    DR    ALL  0       0  
M  SED   1 IMPL_H1
M  END
>  <Molecule ChEMBL ID>
CHEMBL4792025

>  <Compound Key>
15o

>  <Document ChEMBL ID>
CHEMBL4765277

>  <HDAC1>
0

$$$$

  Mrv1808 03272221002D          

 27 29  0  0  0  0            999 V2000
    4.2868    2.4750    0.0000 C   0  0  0  0  0  0  0  0  0  0  0  0
    3.5724    2.0625    0.0000 N   0  0  0  0  0  0  0  0  0  0  0  0
    2.8579    2.4750    0.0000 C   0  0  0  0  0  0  0  0  0  0  0  0
    3.5724    1.2375    0.0000 C   0  0  0  0  0  0  0  0  0  0  0  0
    2.8579    0.8250    0.0000 C   0  0  0  0  0  0  0  0  0  0  0  0
    2.8579   -0.0000    0.0000 C   0  0  0  0  0  0  0  0  0  0  0  0
    2.1434   -0.4125    0.0000 C   0  0  0  0  0  0  0  0  0  0  0  0
    1.4289   -0.0000    0.0000 C   0  0  0  0  0  0  0  0  0  0  0  0
    0.7145   -0.4125    0.0000 C   0  0  0  0  0  0  0  0  0  0  0  0
    0.7145   -1.2375    0.0000 N   0  0  0  0  0  0  0  0  0  0  0  0
    1.3819   -1.7224    0.0000 C   0  0  0  0  0  0  0  0  0  0  0  0
    1.1270   -2.5070    0.0000 C   0  0  0  0  0  0  0  0  0  0  0  0
    0.3020   -2.5070    0.0000 N   0  0  0  0  0  0  0  0  0  0  0  0
   -0.1830   -3.1745    0.0000 C   0  0  0  0  0  0  0  0  0  0  0  0
    0.1526   -3.9282    0.0000 C   0  0  0  0  0  0  0  0  0  0  0  0
   -0.3323   -4.5956    0.0000 C   0  0  0  0  0  0  0  0  0  0  0  0
   -1.1528   -4.5094    0.0000 C   0  0  0  0  0  0  0  0  0  0  0  0
   -1.6377   -5.1768    0.0000 C   0  0  0  0  0  0  0  0  0  0  0  0
   -1.3022   -5.9305    0.0000 O   0  0  0  0  0  0  0  0  0  0  0  0
   -2.4582   -5.0906    0.0000 N   0  0  0  0  0  0  0  0  0  0  0  0
   -2.9431   -5.7580    0.0000 O   0  0  0  0  0  0  0  0  0  0  0  0
   -1.4884   -3.7557    0.0000 C   0  0  0  0  0  0  0  0  0  0  0  0
   -1.0034   -3.0882    0.0000 C   0  0  0  0  0  0  0  0  0  0  0  0
    0.0470   -1.7224    0.0000 C   0  0  0  0  0  0  0  0  0  0  0  0
   -0.7376   -1.4675    0.0000 O   0  0  0  0  0  0  0  0  0  0  0  0
    1.4289    0.8250    0.0000 C   0  0  0  0  0  0  0  0  0  0  0  0
    2.1434    1.2375    0.0000 C   0  0  0  0  0  0  0  0  0  0  0  0
  1  2  1  0  0  0  0
  2  3  1  0  0  0  0
  2  4  1  0  0  0  0
  4  5  1  0  0  0  0
  5  6  4  0  0  0  0
  6  7  4  0  0  0  0
  7  8  4  0  0  0  0
  8  9  1  0  0  0  0
  9 10  1  0  0  0  0
 10 11  1  0  0  0  0
 11 12  1  0  0  0  0
 12 13  1  0  0  0  0
 13 14  1  0  0  0  0
 14 15  4  0  0  0  0
 15 16  4  0  0  0  0
 16 17  4  0  0  0  0
 17 18  1  0  0  0  0
 18 19  2  0  0  0  0
 18 20  1  0  0  0  0
 20 21  1  0  0  0  0
 17 22  4  0  0  0  0
 22 23  4  0  0  0  0
 14 23  4  0  0  0  0
 13 24  1  0  0  0  0
 10 24  1  0  0  0  0
 24 25  2  0  0  0  0
  8 26  4  0  0  0  0
 26 27  4  0  0  0  0
  5 27  4  0  0  0  0
M  END
>  <Molecule ChEMBL ID>
CHEMBL3335002

>  <Compound Key>
1k

>  <Document ChEMBL ID>
CHEMBL3351615

>  <HDAC1>
0

$$$$

  Mrv1808 03272221002D          

 24 25  0  0  0  0            999 V2000
   -4.2868   -5.7750    0.0000 O   0  0  0  0  0  0  0  0  0  0  0  0
   -4.2868   -4.9500    0.0000 C   0  0  0  0  0  0  0  0  0  0  0  0
   -3.5724   -4.5375    0.0000 C   0  0  0  0  0  0  0  0  0  0  0  0
   -3.5724   -3.7125    0.0000 C   0  0  0  0  0  0  0  0  0  0  0  0
   -2.8579   -3.3000    0.0000 C   0  0  0  0  0  0  0  0  0  0  0  0
   -2.8579   -2.4750    0.0000 C   0  0  0  0  0  0  0  0  0  0  0  0
   -2.1434   -2.0625    0.0000 C   0  0  0  0  0  0  0  0  0  0  0  0
   -1.4289   -2.4750    0.0000 C   0  0  0  0  0  0  0  0  0  0  0  0
   -0.7145   -2.0625    0.0000 C   0  0  0  0  0  0  0  0  0  0  0  0
    0.0000   -2.4750    0.0000 C   0  0  0  0  0  0  0  0  0  0  0  0
    0.7145   -2.0625    0.0000 N   0  0  0  0  0  0  0  0  0  0  0  0
    1.4289   -2.4750    0.0000 C   0  0  0  0  0  0  0  0  0  0  0  0
    1.4289   -3.3000    0.0000 O   0  0  0  0  0  0  0  0  0  0  0  0
    2.1434   -2.0625    0.0000 C   0  0  0  0  0  0  0  0  0  0  0  0
    2.1434   -1.2375    0.0000 C   0  0  0  0  0  0  0  0  0  0  0  0
    2.8579   -0.8250    0.0000 N   0  0  0  0  0  0  0  0  0  0  0  0
    3.5724   -1.2375    0.0000 C   0  0  0  0  0  0  0  0  0  0  0  0
    3.5724   -2.0625    0.0000 C   0  0  0  0  0  0  0  0  0  0  0  0
    4.2868   -2.4750    0.0000 F   0  0  0  0  0  0  0  0  0  0  0  0
    2.8579   -2.4750    0.0000 C   0  0  0  0  0  0  0  0  0  0  0  0
   -1.4289   -3.3000    0.0000 C   0  0  0  0  0  0  0  0  0  0  0  0
   -2.1434   -3.7125    0.0000 C   0  0  0  0  0  0  0  0  0  0  0  0
   -5.0013   -4.5375    0.0000 N   0  0  0  0  0  0  0  0  0  0  0  0
   -5.7158   -4.9500    0.0000 O   0  0  0  0  0  0  0  0  0  0  0  0
  1  2  2  0  0  0  0
  2  3  1  0  0  0  0
  3  4  2  0  0  0  0
  4  5  1  0  0  0  0
  5  6  4  0  0  0  0
  6  7  4  0  0  0  0
  7  8  4  0  0  0  0
  8  9  1  0  0  0  0
  9 10  1  0  0  0  0
 10 11  1  0  0  0  0
 11 12  1  0  0  0  0
 12 13  2  0  0  0  0
 12 14  1  0  0  0  0
 14 15  4  0  0  0  0
 15 16  4  0  0  0  0
 16 17  4  0  0  0  0
 17 18  4  0  0  0  0
 18 19  1  0  0  0  0
 18 20  4  0  0  0  0
 14 20  4  0  0  0  0
  8 21  4  0  0  0  0
 21 22  4  0  0  0  0
  5 22  4  0  0  0  0
  2 23  1  0  0  0  0
 23 24  1  0  0  0  0
M  END
>  <Molecule ChEMBL ID>
CHEMBL4069669

>  <Compound Key>
15e

>  <Document ChEMBL ID>
CHEMBL4033641

>  <HDAC1>
0

$$$$

  Mrv1808 03272221002D          

 40 44  0  0  0  0            999 V2000
   -7.4247    0.9846    0.0000 C   0  0  0  0  0  0  0  0  0  0  0  0
   -7.0892    0.2310    0.0000 O   0  0  0  0  0  0  0  0  0  0  0  0
   -6.2687    0.1447    0.0000 C   0  0  0  0  0  0  0  0  0  0  0  0
   -5.7838    0.8122    0.0000 C   0  0  0  0  0  0  0  0  0  0  0  0
   -4.9633    0.7259    0.0000 C   0  0  0  0  0  0  0  0  0  0  0  0
   -4.4784    1.3934    0.0000 N   0  0  0  0  0  0  0  0  0  0  0  0
   -4.8139    2.1470    0.0000 C   0  0  0  0  0  0  0  0  0  0  0  0
   -5.6344    2.2333    0.0000 N   0  0  0  0  0  0  0  0  0  0  0  0
   -5.9700    2.9870    0.0000 C   0  0  0  0  0  0  0  0  0  0  0  0
   -5.4851    3.6544    0.0000 N   0  0  0  0  0  0  0  0  0  0  0  0
   -4.6646    3.5682    0.0000 C   0  0  0  0  0  0  0  0  0  0  0  0
   -4.1796    4.2356    0.0000 C   0  0  0  0  0  0  0  0  0  0  0  0
   -3.3592    4.1494    0.0000 C   0  0  0  0  0  0  0  0  0  0  0  0
   -3.0236    3.3957    0.0000 C   0  0  0  0  0  0  0  0  0  0  0  0
   -2.2031    3.3094    0.0000 C   0  0  0  0  0  0  0  0  0  0  0  0
   -1.6511    3.9225    0.0000 C   0  0  0  0  0  0  0  0  0  0  0  0
   -0.8974    3.5870    0.0000 N   0  0  0  0  0  0  0  0  0  0  0  0
   -0.1830    3.9995    0.0000 C   0  0  0  0  0  0  0  0  0  0  0  0
    0.5315    3.5870    0.0000 C   0  0  0  0  0  0  0  0  0  0  0  0
    1.2460    3.9995    0.0000 C   0  0  0  0  0  0  0  0  0  0  0  0
    1.9605    3.5870    0.0000 C   0  0  0  0  0  0  0  0  0  0  0  0
    2.6749    3.9995    0.0000 C   0  0  0  0  0  0  0  0  0  0  0  0
    3.3894    3.5870    0.0000 C   0  0  0  0  0  0  0  0  0  0  0  0
    3.3894    2.7620    0.0000 O   0  0  0  0  0  0  0  0  0  0  0  0
    4.1039    3.9995    0.0000 N   0  0  0  0  0  0  0  0  0  0  0  0
    4.8183    3.5870    0.0000 O   0  0  0  0  0  0  0  0  0  0  0  0
   -0.9837    2.7665    0.0000 N   0  0  0  0  0  0  0  0  0  0  0  0
   -1.7906    2.5950    0.0000 N   0  0  0  0  0  0  0  0  0  0  0  0
   -3.5085    2.7282    0.0000 C   0  0  0  0  0  0  0  0  0  0  0  0
   -4.3290    2.8145    0.0000 C   0  0  0  0  0  0  0  0  0  0  0  0
   -4.6277   -0.0277    0.0000 C   0  0  0  0  0  0  0  0  0  0  0  0
   -5.1127   -0.6952    0.0000 C   0  0  0  0  0  0  0  0  0  0  0  0
   -5.9331   -0.6090    0.0000 C   0  0  0  0  0  0  0  0  0  0  0  0
   -6.4181   -1.2764    0.0000 O   0  0  0  0  0  0  0  0  0  0  0  0
   -7.2386   -1.1902    0.0000 C   0  0  0  0  0  0  0  0  0  0  0  0
   -7.7235   -1.8576    0.0000 C   0  0  0  0  0  0  0  0  0  0  0  0
   -8.5440   -1.7714    0.0000 C   0  0  0  0  0  0  0  0  0  0  0  0
   -8.8795   -1.0177    0.0000 C   0  0  0  0  0  0  0  0  0  0  0  0
   -8.3946   -0.3502    0.0000 C   0  0  0  0  0  0  0  0  0  0  0  0
   -7.5741   -0.4365    0.0000 C   0  0  0  0  0  0  0  0  0  0  0  0
  1  2  1  0  0  0  0
  2  3  1  0  0  0  0
  3  4  4  0  0  0  0
  4  5  4  0  0  0  0
  5  6  1  0  0  0  0
  6  7  1  0  0  0  0
  7  8  4  0  0  0  0
  8  9  4  0  0  0  0
  9 10  4  0  0  0  0
 10 11  4  0  0  0  0
 11 12  4  0  0  0  0
 12 13  4  0  0  0  0
 13 14  4  0  0  0  0
 14 15  1  0  0  0  0
 15 16  4  0  0  0  0
 16 17  4  0  0  0  0
 17 18  1  0  0  0  0
 18 19  1  0  0  0  0
 19 20  1  0  0  0  0
 20 21  1  0  0  0  0
 21 22  1  0  0  0  0
 22 23  1  0  0  0  0
 23 24  2  0  0  0  0
 23 25  1  0  0  0  0
 25 26  1  0  0  0  0
 17 27  4  0  0  0  0
 27 28  4  0  0  0  0
 15 28  4  0  0  0  0
 14 29  4  0  0  0  0
 29 30  4  0  0  0  0
  7 30  4  0  0  0  0
 11 30  4  0  0  0  0
  5 31  4  0  0  0  0
 31 32  4  0  0  0  0
 32 33  4  0  0  0  0
  3 33  4  0  0  0  0
 33 34  1  0  0  0  0
 34 35  1  0  0  0  0
 35 36  4  0  0  0  0
 36 37  4  0  0  0  0
 37 38  4  0  0  0  0
 38 39  4  0  0  0  0
 39 40  4  0  0  0  0
 35 40  4  0  0  0  0
M  END
>  <Molecule ChEMBL ID>
CHEMBL3921816

>  <Compound Key>
9k

>  <Document ChEMBL ID>
CHEMBL3870325

>  <HDAC1>
0

$$$$

  Mrv1808 03272221002D          

 36 39  0  0  0  0            999 V2000
    2.8579  -11.5500    0.0000 O   0  0  0  0  0  0  0  0  0  0  0  0
    2.1434  -11.1375    0.0000 C   0  0  0  0  0  0  0  0  0  0  0  0
    2.1434  -10.3125    0.0000 C   0  0  0  0  0  0  0  0  0  0  0  0
    1.4289   -9.9000    0.0000 C   0  0  0  0  0  0  0  0  0  0  0  0
    1.4289   -9.0750    0.0000 C   0  0  0  0  0  0  0  0  0  0  0  0
    0.7145   -8.6625    0.0000 C   0  0  0  0  0  0  0  0  0  0  0  0
    0.7145   -7.8375    0.0000 C   0  0  0  0  0  0  0  0  0  0  0  0
    1.4289   -7.4250    0.0000 C   0  0  0  0  0  0  0  0  0  0  0  0
    1.4289   -6.6000    0.0000 C   0  0  0  0  0  0  0  0  0  0  0  0
    2.1434   -6.1875    0.0000 C   0  0  0  0  0  0  0  0  0  0  0  0
    2.1434   -5.3625    0.0000 N   0  0  0  0  0  0  0  0  0  0  0  0
    2.8579   -4.9500    0.0000 C   0  0  0  0  0  0  0  0  0  0  0  0
    3.5724   -5.3625    0.0000 O   0  0  0  0  0  0  0  0  0  0  0  0
    2.8579   -4.1250    0.0000 C   0  0  0  0  0  0  0  0  0  0  0  0
    2.1434   -3.7125    0.0000 C   0  0  0  0  0  0  0  0  0  0  0  0
    2.1434   -2.8875    0.0000 C   0  0  0  0  0  0  0  0  0  0  0  0
    1.4289   -2.4750    0.0000 C   0  0  0  0  0  0  0  0  0  0  0  0
    1.4289   -1.6500    0.0000 C   0  0  0  0  0  0  0  0  0  0  0  0
    0.7145   -1.2375    0.0000 N   0  0  0  0  0  0  0  0  0  0  0  0
    0.7145   -0.4125    0.0000 N   0  0  0  0  0  0  0  0  0  0  0  0
    1.4289    0.0000    0.0000 C   0  0  0  0  0  0  0  0  0  0  0  0
    1.4289    0.8250    0.0000 O   0  0  0  0  0  0  0  0  0  0  0  0
    2.1434   -0.4125    0.0000 C   0  0  0  0  0  0  0  0  0  0  0  0
    2.8579    0.0000    0.0000 C   0  0  0  0  0  0  0  0  0  0  0  0
    3.5724   -0.4125    0.0000 C   0  0  0  0  0  0  0  0  0  0  0  0
    3.5724   -1.2375    0.0000 C   0  0  0  0  0  0  0  0  0  0  0  0
    2.8579   -1.6500    0.0000 C   0  0  0  0  0  0  0  0  0  0  0  0
    2.1434   -1.2375    0.0000 C   0  0  0  0  0  0  0  0  0  0  0  0
    2.8579   -2.4750    0.0000 C   0  0  0  0  0  0  0  0  0  0  0  0
    3.5724   -2.8875    0.0000 C   0  0  0  0  0  0  0  0  0  0  0  0
    3.5724   -3.7125    0.0000 C   0  0  0  0  0  0  0  0  0  0  0  0
    4.2868   -4.1250    0.0000 F   0  0  0  0  0  0  0  0  0  0  0  0
    2.1434   -7.8375    0.0000 C   0  0  0  0  0  0  0  0  0  0  0  0
    2.1434   -8.6625    0.0000 C   0  0  0  0  0  0  0  0  0  0  0  0
    1.4289  -11.5500    0.0000 N   0  0  0  0  0  0  0  0  0  0  0  0
    1.4289  -12.3750    0.0000 O   0  0  0  0  0  0  0  0  0  0  0  0
  1  2  2  0  0  0  0
  2  3  1  0  0  0  0
  3  4  2  0  0  0  0
  4  5  1  0  0  0  0
  5  6  4  0  0  0  0
  6  7  4  0  0  0  0
  7  8  4  0  0  0  0
  8  9  1  0  0  0  0
  9 10  1  0  0  0  0
 10 11  1  0  0  0  0
 11 12  1  0  0  0  0
 12 13  2  0  0  0  0
 12 14  1  0  0  0  0
 14 15  4  0  0  0  0
 15 16  4  0  0  0  0
 16 17  1  0  0  0  0
 17 18  1  0  0  0  0
 18 19  4  0  0  0  0
 19 20  4  0  0  0  0
 20 21  4  0  0  0  0
 21 22  2  0  0  0  0
 21 23  4  0  0  0  0
 23 24  4  0  0  0  0
 24 25  4  0  0  0  0
 25 26  4  0  0  0  0
 26 27  4  0  0  0  0
 27 28  4  0  0  0  0
 18 28  4  0  0  0  0
 23 28  4  0  0  0  0
 16 29  4  0  0  0  0
 29 30  4  0  0  0  0
 30 31  4  0  0  0  0
 14 31  4  0  0  0  0
 31 32  1  0  0  0  0
  8 33  4  0  0  0  0
 33 34  4  0  0  0  0
  5 34  4  0  0  0  0
  2 35  1  0  0  0  0
 35 36  1  0  0  0  0
M  STY  1   1 DAT
M  SAL   1  1  20
M  SDT   1 MRV_IMPLICIT_H                                        
M  SDD   1     0.5304   -0.4125    DR    ALL  0       0  
M  SED   1 IMPL_H1
M  END
>  <Molecule ChEMBL ID>
CHEMBL4096060

>  <Compound Key>
P1

>  <Document ChEMBL ID>
CHEMBL4052667

>  <HDAC1>
0

$$$$

  Mrv1808 03272221002D          

 25 25  0  0  0  0            999 V2000
    1.4289   -1.6500    0.0000 C   0  0  0  0  0  0  0  0  0  0  0  0
    0.7145   -1.2375    0.0000 O   0  0  0  0  0  0  0  0  0  0  0  0
    0.7145   -0.4125    0.0000 C   0  0  0  0  0  0  0  0  0  0  0  0
    0.0000    0.0000    0.0000 C   0  0  0  0  0  0  0  0  0  0  0  0
    0.0000    0.8250    0.0000 C   0  0  0  0  0  0  0  0  0  0  0  0
   -0.7145    1.2375    0.0000 O   0  0  0  0  0  0  0  0  0  0  0  0
    0.7145    1.2375    0.0000 C   0  0  0  0  0  0  0  0  0  0  0  0
    1.4289    0.8250    0.0000 C   0  0  0  0  0  0  0  0  0  0  0  0
    2.1434    1.2375    0.0000 O   0  0  0  0  0  0  0  0  0  0  0  0
    2.8579    0.8250    0.0000 C   0  0  0  0  0  0  0  0  0  0  0  0
    1.4289    0.0000    0.0000 C   0  0  0  0  0  0  0  0  0  0  0  0
    2.1434   -0.4125    0.0000 C   0  0  0  0  0  0  0  0  0  0  0  0
    2.1434   -1.2375    0.0000 N   0  0  0  0  0  0  0  0  0  0  0  0
    2.8579   -1.6500    0.0000 N   0  0  0  0  0  0  0  0  0  0  0  0
    3.5724   -1.2375    0.0000 C   0  0  0  0  0  0  0  0  0  0  0  0
    3.5724   -0.4125    0.0000 O   0  0  0  0  0  0  0  0  0  0  0  0
    4.2868   -1.6500    0.0000 C   0  0  0  0  0  0  0  0  0  0  0  0
    5.0013   -1.2375    0.0000 C   0  0  0  0  0  0  0  0  0  0  0  0
    5.7158   -1.6500    0.0000 C   0  0  0  0  0  0  0  0  0  0  0  0
    6.4302   -1.2375    0.0000 C   0  0  0  0  0  0  0  0  0  0  0  0
    7.1447   -1.6500    0.0000 C   0  0  0  0  0  0  0  0  0  0  0  0
    7.8592   -1.2375    0.0000 C   0  0  0  0  0  0  0  0  0  0  0  0
    7.8592   -0.4125    0.0000 O   0  0  0  0  0  0  0  0  0  0  0  0
    8.5737   -1.6500    0.0000 N   0  0  0  0  0  0  0  0  0  0  0  0
    9.2881   -1.2375    0.0000 O   0  0  0  0  0  0  0  0  0  0  0  0
  1  2  1  0  0  0  0
  2  3  1  0  0  0  0
  3  4  4  0  0  0  0
  4  5  4  0  0  0  0
  5  6  1  0  0  0  0
  5  7  4  0  0  0  0
  7  8  4  0  0  0  0
  8  9  1  0  0  0  0
  9 10  1  0  0  0  0
  8 11  4  0  0  0  0
  3 11  4  0  0  0  0
 11 12  1  0  0  0  0
 12 13  2  0  0  0  0
 13 14  1  0  0  0  0
 14 15  1  0  0  0  0
 15 16  2  0  0  0  0
 15 17  1  0  0  0  0
 17 18  1  0  0  0  0
 18 19  1  0  0  0  0
 19 20  1  0  0  0  0
 20 21  1  0  0  0  0
 21 22  1  0  0  0  0
 22 23  2  0  0  0  0
 22 24  1  0  0  0  0
 24 25  1  0  0  0  0
M  END
>  <Molecule ChEMBL ID>
CHEMBL3758246

>  <Compound Key>
9k

>  <Document ChEMBL ID>
CHEMBL3758132

>  <HDAC1>
0

$$$$

  Mrv1808 03272221002D          

 32 34  0  0  0  0            999 V2000
   -6.4302    6.1875    0.0000 C   0  0  0  0  0  0  0  0  0  0  0  0
   -5.7158    5.7750    0.0000 O   0  0  0  0  0  0  0  0  0  0  0  0
   -5.0013    6.1875    0.0000 C   0  0  0  0  0  0  0  0  0  0  0  0
   -5.0013    7.0125    0.0000 C   0  0  0  0  0  0  0  0  0  0  0  0
   -4.2868    7.4250    0.0000 C   0  0  0  0  0  0  0  0  0  0  0  0
   -4.2868    8.2500    0.0000 O   0  0  0  0  0  0  0  0  0  0  0  0
   -3.5724    8.6625    0.0000 C   0  0  0  0  0  0  0  0  0  0  0  0
   -3.5724    7.0125    0.0000 C   0  0  0  0  0  0  0  0  0  0  0  0
   -2.8579    7.4250    0.0000 C   0  0  0  0  0  0  0  0  0  0  0  0
   -2.8579    8.2500    0.0000 O   0  0  0  0  0  0  0  0  0  0  0  0
   -2.1434    7.0125    0.0000 N   0  0  0  0  0  0  0  0  0  0  0  0
   -2.1434    6.1875    0.0000 C   0  0  0  0  0  0  0  0  0  0  0  0
   -1.4289    5.7750    0.0000 C   0  0  0  0  0  0  0  0  0  0  0  0
   -0.7145    6.1875    0.0000 C   0  0  0  0  0  0  0  0  0  0  0  0
   -0.0000    5.7750    0.0000 C   0  0  0  0  0  0  0  0  0  0  0  0
    0.7145    6.1875    0.0000 C   0  0  0  0  0  0  0  0  0  0  0  0
   -0.0000    4.9500    0.0000 C   0  0  0  0  0  0  0  0  0  0  0  0
    0.7145    4.5375    0.0000 O   0  0  0  0  0  0  0  0  0  0  0  0
    1.4289    4.9500    0.0000 C   0  0  0  0  0  0  0  0  0  0  0  0
    2.1434    4.5375    0.0000 C   0  0  0  0  0  0  0  0  0  0  0  0
    2.8579    4.9500    0.0000 C   0  0  0  0  0  0  0  0  0  0  0  0
    3.5724    4.5375    0.0000 C   0  0  0  0  0  0  0  0  0  0  0  0
    4.2868    4.9500    0.0000 C   0  0  0  0  0  0  0  0  0  0  0  0
    4.2868    5.7750    0.0000 O   0  0  0  0  0  0  0  0  0  0  0  0
    5.0013    4.5375    0.0000 N   0  0  0  0  0  0  0  0  0  0  0  0
    5.7158    4.9500    0.0000 O   0  0  0  0  0  0  0  0  0  0  0  0
   -0.7145    4.5375    0.0000 C   0  0  0  0  0  0  0  0  0  0  0  0
   -0.7145    3.7125    0.0000 C   0  0  0  0  0  0  0  0  0  0  0  0
   -1.4289    4.9500    0.0000 C   0  0  0  0  0  0  0  0  0  0  0  0
   -2.8579    5.7750    0.0000 N   0  0  0  0  0  0  0  0  0  0  0  0
   -3.5724    6.1875    0.0000 C   0  0  0  0  0  0  0  0  0  0  0  0
   -4.2868    5.7750    0.0000 C   0  0  0  0  0  0  0  0  0  0  0  0
  1  2  1  0  0  0  0
  2  3  1  0  0  0  0
  3  4  4  0  0  0  0
  4  5  4  0  0  0  0
  5  6  1  0  0  0  0
  6  7  1  0  0  0  0
  5  8  4  0  0  0  0
  8  9  4  0  0  0  0
  9 10  2  0  0  0  0
  9 11  4  0  0  0  0
 11 12  4  0  0  0  0
 12 13  1  0  0  0  0
 13 14  4  0  0  0  0
 14 15  4  0  0  0  0
 15 16  1  0  0  0  0
 15 17  4  0  0  0  0
 17 18  1  0  0  0  0
 18 19  1  0  0  0  0
 19 20  1  0  0  0  0
 20 21  1  0  0  0  0
 21 22  1  0  0  0  0
 22 23  1  0  0  0  0
 23 24  2  0  0  0  0
 23 25  1  0  0  0  0
 25 26  1  0  0  0  0
 17 27  4  0  0  0  0
 27 28  1  0  0  0  0
 27 29  4  0  0  0  0
 13 29  4  0  0  0  0
 12 30  4  0  0  0  0
 30 31  4  0  0  0  0
  8 31  4  0  0  0  0
 31 32  4  0  0  0  0
  3 32  4  0  0  0  0
M  STY  1   1 DAT
M  SAL   1  1  11
M  SDT   1 MRV_IMPLICIT_H                                        
M  SDD   1     0.5304   -0.4125    DR    ALL  0       0  
M  SED   1 IMPL_H1
M  END
>  <Molecule ChEMBL ID>
CHEMBL4079901

>  <Compound Key>
16ac

>  <Document ChEMBL ID>
CHEMBL4043137

>  <HDAC1>
0

$$$$

  Mrv1808 03272221002D          

 25 27  0  0  0  0            999 V2000
    4.7812    4.4104    0.0000 O   0  0  0  0  0  0  0  0  0  0  0  0
    4.7812    3.5854    0.0000 C   0  0  0  0  0  0  0  0  0  0  0  0
    4.0668    3.1729    0.0000 C   0  0  0  0  0  0  0  0  0  0  0  0
    4.0668    2.3479    0.0000 C   0  0  0  0  0  0  0  0  0  0  0  0
    3.3523    1.9354    0.0000 C   0  0  0  0  0  0  0  0  0  0  0  0
    3.3523    1.1104    0.0000 C   0  0  0  0  0  0  0  0  0  0  0  0
    2.6378    0.6979    0.0000 C   0  0  0  0  0  0  0  0  0  0  0  0
    1.9233    1.1104    0.0000 C   0  0  0  0  0  0  0  0  0  0  0  0
    1.9233    1.9354    0.0000 C   0  0  0  0  0  0  0  0  0  0  0  0
    1.1387    2.1904    0.0000 C   0  0  0  0  0  0  0  0  0  0  0  0
    0.6538    1.5229    0.0000 C   0  0  0  0  0  0  0  0  0  0  0  0
    1.1387    0.8555    0.0000 N   0  0  0  0  0  0  0  0  0  0  0  0
    0.8838    0.0709    0.0000 S   0  0  0  0  0  0  0  0  0  0  0  0
    1.6684   -0.1841    0.0000 O   0  0  0  0  0  0  0  0  0  0  0  0
    0.0992    0.3258    0.0000 O   0  0  0  0  0  0  0  0  0  0  0  0
    0.6288   -0.7137    0.0000 C   0  0  0  0  0  0  0  0  0  0  0  0
    1.1809   -1.3268    0.0000 C   0  0  0  0  0  0  0  0  0  0  0  0
    0.9259   -2.1115    0.0000 C   0  0  0  0  0  0  0  0  0  0  0  0
    0.1190   -2.2830    0.0000 C   0  0  0  0  0  0  0  0  0  0  0  0
   -0.1360   -3.0676    0.0000 F   0  0  0  0  0  0  0  0  0  0  0  0
   -0.4331   -1.6699    0.0000 C   0  0  0  0  0  0  0  0  0  0  0  0
   -0.1781   -0.8853    0.0000 C   0  0  0  0  0  0  0  0  0  0  0  0
    2.6378    2.3479    0.0000 C   0  0  0  0  0  0  0  0  0  0  0  0
    5.4957    3.1729    0.0000 N   0  0  0  0  0  0  0  0  0  0  0  0
    6.2102    3.5854    0.0000 O   0  0  0  0  0  0  0  0  0  0  0  0
  1  2  2  0  0  0  0
  2  3  1  0  0  0  0
  3  4  2  0  0  0  0
  4  5  1  0  0  0  0
  5  6  4  0  0  0  0
  6  7  4  0  0  0  0
  7  8  4  0  0  0  0
  8  9  4  0  0  0  0
  9 10  4  0  0  0  0
 10 11  4  0  0  0  0
 11 12  4  0  0  0  0
  8 12  4  0  0  0  0
 12 13  1  0  0  0  0
 13 14  2  0  0  0  0
 13 15  2  0  0  0  0
 13 16  1  0  0  0  0
 16 17  4  0  0  0  0
 17 18  4  0  0  0  0
 18 19  4  0  0  0  0
 19 20  1  0  0  0  0
 19 21  4  0  0  0  0
 21 22  4  0  0  0  0
 16 22  4  0  0  0  0
  9 23  4  0  0  0  0
  5 23  4  0  0  0  0
  2 24  1  0  0  0  0
 24 25  1  0  0  0  0
M  END
>  <Molecule ChEMBL ID>
CHEMBL2048751

>  <Compound Key>
13

>  <Document ChEMBL ID>
CHEMBL2046324

>  <HDAC1>
0

$$$$

  Mrv1808 03272221002D          

 47 51  0  0  0  0            999 V2000
    2.1434   -2.8875    0.0000 C   0  0  0  0  0  0  0  0  0  0  0  0
    1.4289   -2.4750    0.0000 O   0  0  0  0  0  0  0  0  0  0  0  0
    1.4289   -1.6500    0.0000 C   0  0  0  0  0  0  0  0  0  0  0  0
    0.7145   -1.2375    0.0000 C   0  0  0  0  0  0  0  0  0  0  0  0
    0.7145   -0.4125    0.0000 C   0  0  0  0  0  0  0  0  0  0  0  0
    0.0000    0.0000    0.0000 C   0  0  0  0  0  0  0  0  0  0  0  0
   -0.7145   -0.4125    0.0000 O   0  0  0  0  0  0  0  0  0  0  0  0
   -1.4289    0.0000    0.0000 C   0  0  0  0  0  0  0  0  0  0  0  0
   -2.1434   -0.4125    0.0000 C   0  0  0  0  0  0  0  0  0  0  0  0
   -2.8579    0.0000    0.0000 C   0  0  0  0  0  0  0  0  0  0  0  0
   -2.8579    0.8250    0.0000 C   0  0  0  0  0  0  0  0  0  0  0  0
   -3.5724    1.2375    0.0000 N   0  0  0  0  0  0  0  0  0  0  0  0
   -3.5724    2.0625    0.0000 C   0  0  0  0  0  0  0  0  0  0  0  0
   -2.8579    2.4750    0.0000 O   0  0  0  0  0  0  0  0  0  0  0  0
   -4.2868    2.4750    0.0000 C   0  0  0  0  0  0  0  0  0  0  0  0
   -5.0013    2.0625    0.0000 N   0  0  0  0  0  0  0  0  0  0  0  0
   -5.7158    2.4750    0.0000 N   0  0  0  0  0  0  0  0  0  0  0  0
   -6.4302    2.0625    0.0000 C   0  0  0  0  0  0  0  0  0  0  0  0
   -6.4302    1.2375    0.0000 C   0  0  0  0  0  0  0  0  0  0  0  0
   -7.1447    0.8250    0.0000 C   0  0  0  0  0  0  0  0  0  0  0  0
   -7.8592    1.2375    0.0000 C   0  0  0  0  0  0  0  0  0  0  0  0
   -7.8592    2.0625    0.0000 C   0  0  0  0  0  0  0  0  0  0  0  0
   -7.1447    2.4750    0.0000 C   0  0  0  0  0  0  0  0  0  0  0  0
   -5.7158    3.3000    0.0000 C   0  0  0  0  0  0  0  0  0  0  0  0
   -5.0013    3.7125    0.0000 C   0  0  0  0  0  0  0  0  0  0  0  0
   -5.0013    4.5375    0.0000 C   0  0  0  0  0  0  0  0  0  0  0  0
   -4.2868    3.3000    0.0000 C   0  0  0  0  0  0  0  0  0  0  0  0
   -3.5724    3.7125    0.0000 O   0  0  0  0  0  0  0  0  0  0  0  0
   -2.1434    1.2375    0.0000 C   0  0  0  0  0  0  0  0  0  0  0  0
   -1.4289    0.8250    0.0000 C   0  0  0  0  0  0  0  0  0  0  0  0
    0.0000    0.8250    0.0000 C   0  0  0  0  0  0  0  0  0  0  0  0
    0.7145    1.2375    0.0000 C   0  0  0  0  0  0  0  0  0  0  0  0
    1.4289    0.8250    0.0000 N   0  0  0  0  0  0  0  0  0  0  0  0
    1.4289    0.0000    0.0000 C   0  0  0  0  0  0  0  0  0  0  0  0
    2.1434   -0.4125    0.0000 C   0  0  0  0  0  0  0  0  0  0  0  0
    2.1434   -1.2375    0.0000 C   0  0  0  0  0  0  0  0  0  0  0  0
    2.8579   -1.6500    0.0000 O   0  0  0  0  0  0  0  0  0  0  0  0
    3.5724   -1.2375    0.0000 C   0  0  0  0  0  0  0  0  0  0  0  0
    4.2868   -1.6500    0.0000 C   0  0  0  0  0  0  0  0  0  0  0  0
    5.0013   -1.2375    0.0000 C   0  0  0  0  0  0  0  0  0  0  0  0
    5.7158   -1.6500    0.0000 C   0  0  0  0  0  0  0  0  0  0  0  0
    6.4302   -1.2375    0.0000 C   0  0  0  0  0  0  0  0  0  0  0  0
    7.1447   -1.6500    0.0000 C   0  0  0  0  0  0  0  0  0  0  0  0
    7.8592   -1.2375    0.0000 C   0  0  0  0  0  0  0  0  0  0  0  0
    7.8592   -0.4125    0.0000 O   0  0  0  0  0  0  0  0  0  0  0  0
    8.5737   -1.6500    0.0000 N   0  0  0  0  0  0  0  0  0  0  0  0
    9.2881   -1.2375    0.0000 O   0  0  0  0  0  0  0  0  0  0  0  0
  1  2  1  0  0  0  0
  2  3  1  0  0  0  0
  3  4  4  0  0  0  0
  4  5  4  0  0  0  0
  5  6  4  0  0  0  0
  6  7  1  0  0  0  0
  7  8  1  0  0  0  0
  8  9  4  0  0  0  0
  9 10  4  0  0  0  0
 10 11  4  0  0  0  0
 11 12  1  0  0  0  0
 12 13  1  0  0  0  0
 13 14  2  0  0  0  0
 13 15  1  0  0  0  0
 15 16  4  0  0  0  0
 16 17  4  0  0  0  0
 17 18  1  0  0  0  0
 18 19  4  0  0  0  0
 19 20  4  0  0  0  0
 20 21  4  0  0  0  0
 21 22  4  0  0  0  0
 22 23  4  0  0  0  0
 18 23  4  0  0  0  0
 17 24  4  0  0  0  0
 24 25  4  0  0  0  0
 25 26  1  0  0  0  0
 25 27  4  0  0  0  0
 15 27  4  0  0  0  0
 27 28  2  0  0  0  0
 11 29  4  0  0  0  0
 29 30  4  0  0  0  0
  8 30  4  0  0  0  0
  6 31  4  0  0  0  0
 31 32  4  0  0  0  0
 32 33  4  0  0  0  0
 33 34  4  0  0  0  0
  5 34  4  0  0  0  0
 34 35  4  0  0  0  0
 35 36  4  0  0  0  0
  3 36  4  0  0  0  0
 36 37  1  0  0  0  0
 37 38  1  0  0  0  0
 38 39  1  0  0  0  0
 39 40  1  0  0  0  0
 40 41  1  0  0  0  0
 41 42  1  0  0  0  0
 42 43  1  0  0  0  0
 43 44  1  0  0  0  0
 44 45  2  0  0  0  0
 44 46  1  0  0  0  0
 46 47  1  0  0  0  0
M  END
>  <Molecule ChEMBL ID>
CHEMBL4748100

>  <Compound Key>
14o

>  <Document ChEMBL ID>
CHEMBL4706531

>  <HDAC1>
0

$$$$

  Mrv1808 03272221002D          

 48 52  0  0  0  0            999 V2000
  -10.7171    2.8875    0.0000 C   0  0  0  0  0  0  0  0  0  0  0  0
  -10.7171    3.7125    0.0000 C   0  0  0  0  0  0  0  0  0  0  0  0
  -10.0026    4.1250    0.0000 C   0  0  0  0  0  0  0  0  0  0  0  0
  -10.0026    4.9500    0.0000 C   0  0  0  0  0  0  0  0  0  0  0  0
   -9.2881    5.3625    0.0000 N   0  0  0  0  0  0  0  0  0  0  0  0
   -9.2881    6.1875    0.0000 C   0  0  0  0  0  0  0  0  0  0  0  0
  -10.0026    6.6000    0.0000 C   0  0  0  0  0  0  0  0  0  0  0  0
  -10.0026    7.4250    0.0000 C   0  0  0  0  0  0  0  0  0  0  0  0
   -9.2881    7.8375    0.0000 C   0  0  0  0  0  0  0  0  0  0  0  0
   -8.5737    7.4250    0.0000 C   0  0  0  0  0  0  0  0  0  0  0  0
   -8.5737    6.6000    0.0000 C   0  0  0  0  0  0  0  0  0  0  0  0
   -8.5737    4.9500    0.0000 N   0  0  0  0  0  0  0  0  0  0  0  0
   -8.5737    4.1250    0.0000 C   0  0  0  0  0  0  0  0  0  0  0  0
   -7.8592    3.7125    0.0000 C   0  0  0  0  0  0  0  0  0  0  0  0
   -7.8592    2.8875    0.0000 O   0  0  0  0  0  0  0  0  0  0  0  0
   -7.1447    4.1250    0.0000 N   0  0  0  0  0  0  0  0  0  0  0  0
   -6.4302    3.7125    0.0000 C   0  0  0  0  0  0  0  0  0  0  0  0
   -5.7158    4.1250    0.0000 C   0  0  0  0  0  0  0  0  0  0  0  0
   -5.0013    3.7125    0.0000 C   0  0  0  0  0  0  0  0  0  0  0  0
   -5.0013    2.8875    0.0000 C   0  0  0  0  0  0  0  0  0  0  0  0
   -4.2868    2.4750    0.0000 O   0  0  0  0  0  0  0  0  0  0  0  0
   -3.5724    2.8875    0.0000 C   0  0  0  0  0  0  0  0  0  0  0  0
   -3.5724    3.7125    0.0000 C   0  0  0  0  0  0  0  0  0  0  0  0
   -2.8579    4.1250    0.0000 C   0  0  0  0  0  0  0  0  0  0  0  0
   -2.1434    3.7125    0.0000 N   0  0  0  0  0  0  0  0  0  0  0  0
   -2.1434    2.8875    0.0000 C   0  0  0  0  0  0  0  0  0  0  0  0
   -1.4289    2.4750    0.0000 C   0  0  0  0  0  0  0  0  0  0  0  0
   -1.4289    1.6500    0.0000 C   0  0  0  0  0  0  0  0  0  0  0  0
   -0.7145    1.2375    0.0000 O   0  0  0  0  0  0  0  0  0  0  0  0
   -0.0000    1.6500    0.0000 C   0  0  0  0  0  0  0  0  0  0  0  0
    0.7145    1.2375    0.0000 C   0  0  0  0  0  0  0  0  0  0  0  0
    1.4289    1.6500    0.0000 C   0  0  0  0  0  0  0  0  0  0  0  0
    2.1434    1.2375    0.0000 C   0  0  0  0  0  0  0  0  0  0  0  0
    2.8579    1.6500    0.0000 C   0  0  0  0  0  0  0  0  0  0  0  0
    3.5724    1.2375    0.0000 C   0  0  0  0  0  0  0  0  0  0  0  0
    4.2868    1.6500    0.0000 C   0  0  0  0  0  0  0  0  0  0  0  0
    4.2868    2.4750    0.0000 O   0  0  0  0  0  0  0  0  0  0  0  0
    5.0013    1.2375    0.0000 N   0  0  0  0  0  0  0  0  0  0  0  0
    5.7158    1.6500    0.0000 O   0  0  0  0  0  0  0  0  0  0  0  0
   -2.1434    1.2375    0.0000 C   0  0  0  0  0  0  0  0  0  0  0  0
   -2.1434    0.4125    0.0000 O   0  0  0  0  0  0  0  0  0  0  0  0
   -2.8579    0.0000    0.0000 C   0  0  0  0  0  0  0  0  0  0  0  0
   -2.8579    1.6500    0.0000 C   0  0  0  0  0  0  0  0  0  0  0  0
   -2.8579    2.4750    0.0000 C   0  0  0  0  0  0  0  0  0  0  0  0
   -5.7158    2.4750    0.0000 C   0  0  0  0  0  0  0  0  0  0  0  0
   -6.4302    2.8875    0.0000 C   0  0  0  0  0  0  0  0  0  0  0  0
   -9.2881    3.7125    0.0000 C   0  0  0  0  0  0  0  0  0  0  0  0
   -9.2881    2.8875    0.0000 O   0  0  0  0  0  0  0  0  0  0  0  0
  1  2  1  0  0  0  0
  2  3  1  0  0  0  0
  3  4  4  0  0  0  0
  4  5  4  0  0  0  0
  5  6  1  0  0  0  0
  6  7  4  0  0  0  0
  7  8  4  0  0  0  0
  8  9  4  0  0  0  0
  9 10  4  0  0  0  0
 10 11  4  0  0  0  0
  6 11  4  0  0  0  0
  5 12  4  0  0  0  0
 12 13  4  0  0  0  0
 13 14  1  0  0  0  0
 14 15  2  0  0  0  0
 14 16  1  0  0  0  0
 16 17  1  0  0  0  0
 17 18  4  0  0  0  0
 18 19  4  0  0  0  0
 19 20  4  0  0  0  0
 20 21  1  0  0  0  0
 21 22  1  0  0  0  0
 22 23  4  0  0  0  0
 23 24  4  0  0  0  0
 24 25  4  0  0  0  0
 25 26  4  0  0  0  0
 26 27  4  0  0  0  0
 27 28  4  0  0  0  0
 28 29  1  0  0  0  0
 29 30  1  0  0  0  0
 30 31  1  0  0  0  0
 31 32  1  0  0  0  0
 32 33  1  0  0  0  0
 33 34  1  0  0  0  0
 34 35  1  0  0  0  0
 35 36  1  0  0  0  0
 36 37  2  0  0  0  0
 36 38  1  0  0  0  0
 38 39  1  0  0  0  0
 28 40  4  0  0  0  0
 40 41  1  0  0  0  0
 41 42  1  0  0  0  0
 40 43  4  0  0  0  0
 43 44  4  0  0  0  0
 22 44  4  0  0  0  0
 26 44  4  0  0  0  0
 20 45  4  0  0  0  0
 45 46  4  0  0  0  0
 17 46  4  0  0  0  0
 13 47  4  0  0  0  0
  3 47  4  0  0  0  0
 47 48  2  0  0  0  0
M  END
>  <Molecule ChEMBL ID>
CHEMBL4740648

>  <Compound Key>
14y

>  <Document ChEMBL ID>
CHEMBL4706531

>  <HDAC1>
0

$$$$

  Mrv1808 03272221002D          

 36 37  0  0  1  0            999 V2000
    5.2706   -2.3865    0.0000 C   0  0  0  0  0  0  0  0  0  0  0  0
    5.4276   -1.5766    0.0000 C   0  0  0  0  0  0  0  0  0  0  0  0
    4.8048   -1.0356    0.0000 C   0  0  0  0  0  0  0  0  0  0  0  0
    4.0832   -1.5361    0.0000 N   0  0  0  0  0  0  0  0  0  0  0  0
    3.1842   -1.5584    0.0000 C   0  0  0  0  0  0  0  0  0  0  0  0
    2.7667   -2.2700    0.0000 O   0  0  0  0  0  0  0  0  0  0  0  0
    2.7385   -0.7127    0.0000 C   0  0  1  0  0  0  0  0  0  0  0  0
    3.4137   -0.1751    0.0000 C   0  0  0  0  0  0  0  0  0  0  0  0
    3.3184   -0.9662    0.0000 S   0  0  0  0  0  0  0  0  0  0  0  0
    2.4124   -1.1519    0.0000 S   0  0  0  0  0  0  0  0  0  0  0  0
    2.4349   -0.2381    0.0000 C   0  0  0  0  0  0  0  0  0  0  0  0
    2.5884    0.5656    0.0000 C   0  0  0  0  0  0  0  0  0  0  0  0
    3.0415    1.2446    0.0000 C   0  0  0  0  0  0  0  0  0  0  0  0
    2.9212    2.0685    0.0000 C   0  0  0  0  0  0  0  0  0  0  0  0
    3.2535    2.8361    0.0000 C   0  0  1  0  0  0  0  0  0  0  0  0
    2.4708    3.1424    0.0000 C   0  0  0  0  0  0  0  0  0  0  0  0
    1.6644    2.8653    0.0000 C   0  0  0  0  0  0  0  0  0  0  0  0
    1.1537    3.5132    0.0000 O   0  0  0  0  0  0  0  0  0  0  0  0
    1.1966    2.1301    0.0000 N   0  0  0  0  0  0  0  0  0  0  0  0
    1.1287    1.2600    0.0000 C   0  0  2  0  0  0  0  0  0  0  0  0
    0.3062    1.1969    0.0000 C   0  0  0  0  0  0  0  0  0  0  0  0
   -0.0505    0.4530    0.0000 C   0  0  0  0  0  0  0  0  0  0  0  0
   -0.1598    1.8778    0.0000 C   0  0  0  0  0  0  0  0  0  0  0  0
    1.3278    0.4133    0.0000 C   0  0  0  0  0  0  0  0  0  0  0  0
    0.5742    0.0775    0.0000 O   0  0  0  0  0  0  0  0  0  0  0  0
    1.8364   -0.3181    0.0000 N   0  0  0  0  0  0  0  0  0  0  0  0
    4.0883    2.6456    0.0000 O   0  0  0  0  0  0  0  0  0  0  0  0
    4.7651    2.1168    0.0000 C   0  0  0  0  0  0  0  0  0  0  0  0
    5.4765    2.5345    0.0000 O   0  0  0  0  0  0  0  0  0  0  0  0
    4.8925    1.2963    0.0000 C   0  0  2  0  0  0  0  0  0  0  0  0
    5.6813    1.5380    0.0000 C   0  0  0  0  0  0  0  0  0  0  0  0
    6.2851    0.9757    0.0000 C   0  0  0  0  0  0  0  0  0  0  0  0
    5.8664    2.3420    0.0000 C   0  0  0  0  0  0  0  0  0  0  0  0
    5.2412    0.5567    0.0000 N   0  0  0  0  0  0  0  0  0  0  0  0
    5.1878   -0.2737    0.0000 C   0  0  0  0  0  0  0  0  0  0  0  0
    5.9839   -0.4898    0.0000 O   0  0  0  0  0  0  0  0  0  0  0  0
  1  2  1  0  0  0  0
  2  3  2  0  0  0  0
  3  4  1  0  0  0  0
  4  5  1  0  0  0  0
  5  6  2  0  0  0  0
  7  5  1  0  0  0  0
  7  8  1  0  0  0  0
  8  9  1  0  0  0  0
  9 10  1  0  0  0  0
 10 11  1  0  0  0  0
 11 12  1  0  0  0  0
 12 13  1  0  0  0  0
 13 14  2  0  0  0  0
 15 14  1  0  0  0  0
 15 16  1  0  0  0  0
 16 17  1  0  0  0  0
 17 18  2  0  0  0  0
 17 19  1  0  0  0  0
 20 19  1  0  0  0  0
 20 21  1  1  0  0  0
 21 22  1  0  0  0  0
 21 23  1  0  0  0  0
 20 24  1  0  0  0  0
 24 25  2  0  0  0  0
 24 26  1  0  0  0  0
  7 26  1  6  0  0  0
 15 27  1  1  0  0  0
 27 28  1  0  0  0  0
 28 29  2  0  0  0  0
 30 28  1  0  0  0  0
 30 31  1  1  0  0  0
 31 32  1  0  0  0  0
 31 33  1  0  0  0  0
 30 34  1  6  0  0  0
 34 35  1  0  0  0  0
  3 35  1  0  0  0  0
 35 36  2  0  0  0  0
M  END
>  <Molecule ChEMBL ID>
CHEMBL3310505

>  <Compound Key>
26; FK228

>  <Document ChEMBL ID>
CHEMBL4342416

>  <HDAC1>
0

$$$$

  Mrv1808 03272221002D          

 27 29  0  0  0  0            999 V2000
    8.4023    0.2439    0.0000 O   0  0  0  0  0  0  0  0  0  0  0  0
    8.4023   -0.5811    0.0000 C   0  0  0  0  0  0  0  0  0  0  0  0
    7.6879   -0.9936    0.0000 C   0  0  0  0  0  0  0  0  0  0  0  0
    6.9734   -0.5811    0.0000 C   0  0  0  0  0  0  0  0  0  0  0  0
    6.2589   -0.9936    0.0000 C   0  0  0  0  0  0  0  0  0  0  0  0
    5.5445   -0.5811    0.0000 C   0  0  0  0  0  0  0  0  0  0  0  0
    4.8300   -0.9936    0.0000 C   0  0  0  0  0  0  0  0  0  0  0  0
    4.1155   -0.5811    0.0000 C   0  0  0  0  0  0  0  0  0  0  0  0
    3.4010   -0.9936    0.0000 C   0  0  0  0  0  0  0  0  0  0  0  0
    3.4010   -1.8186    0.0000 O   0  0  0  0  0  0  0  0  0  0  0  0
    2.6866   -0.5811    0.0000 N   0  0  0  0  0  0  0  0  0  0  0  0
    1.9721   -0.9936    0.0000 C   0  0  0  0  0  0  0  0  0  0  0  0
    1.8859   -1.8141    0.0000 N   0  0  0  0  0  0  0  0  0  0  0  0
    1.0789   -1.9856    0.0000 N   0  0  0  0  0  0  0  0  0  0  0  0
    0.6664   -1.2711    0.0000 C   0  0  0  0  0  0  0  0  0  0  0  0
   -0.1406   -1.0996    0.0000 C   0  0  0  0  0  0  0  0  0  0  0  0
   -0.3955   -0.3150    0.0000 C   0  0  0  0  0  0  0  0  0  0  0  0
   -1.2025   -0.1435    0.0000 C   0  0  0  0  0  0  0  0  0  0  0  0
   -1.8156   -0.6955    0.0000 C   0  0  0  0  0  0  0  0  0  0  0  0
   -2.5301   -0.2830    0.0000 C   0  0  0  0  0  0  0  0  0  0  0  0
   -2.3585    0.5240    0.0000 S   0  0  0  0  0  0  0  0  0  0  0  0
   -1.5380    0.6102    0.0000 C   0  0  0  0  0  0  0  0  0  0  0  0
    0.1565    0.2981    0.0000 C   0  0  0  0  0  0  0  0  0  0  0  0
    0.9635    0.1266    0.0000 C   0  0  0  0  0  0  0  0  0  0  0  0
    1.2184   -0.6580    0.0000 C   0  0  0  0  0  0  0  0  0  0  0  0
    9.1168   -0.9936    0.0000 N   0  0  0  0  0  0  0  0  0  0  0  0
    9.8313   -0.5811    0.0000 O   0  0  0  0  0  0  0  0  0  0  0  0
  1  2  2  0  0  0  0
  2  3  1  0  0  0  0
  3  4  1  0  0  0  0
  4  5  1  0  0  0  0
  5  6  1  0  0  0  0
  6  7  1  0  0  0  0
  7  8  1  0  0  0  0
  8  9  1  0  0  0  0
  9 10  2  0  0  0  0
  9 11  1  0  0  0  0
 11 12  1  0  0  0  0
 12 13  4  0  0  0  0
 13 14  4  0  0  0  0
 14 15  4  0  0  0  0
 15 16  4  0  0  0  0
 16 17  4  0  0  0  0
 17 18  1  0  0  0  0
 18 19  4  0  0  0  0
 19 20  4  0  0  0  0
 20 21  4  0  0  0  0
 21 22  4  0  0  0  0
 18 22  4  0  0  0  0
 17 23  4  0  0  0  0
 23 24  4  0  0  0  0
 24 25  4  0  0  0  0
 12 25  4  0  0  0  0
 15 25  4  0  0  0  0
  2 26  1  0  0  0  0
 26 27  1  0  0  0  0
M  STY  1   1 DAT
M  SAL   1  1  14
M  SDT   1 MRV_IMPLICIT_H                                        
M  SDD   1     0.5304   -0.4125    DR    ALL  0       0  
M  SED   1 IMPL_H1
M  END
>  <Molecule ChEMBL ID>
CHEMBL4792705

>  <Compound Key>
15p

>  <Document ChEMBL ID>
CHEMBL4765277

>  <HDAC1>
0

$$$$

  Mrv1808 03272221002D          

 32 34  0  0  0  0            999 V2000
    2.1434   -1.2375    0.0000 O   0  0  0  0  0  0  0  0  0  0  0  0
    2.1434   -2.0625    0.0000 C   0  0  0  0  0  0  0  0  0  0  0  0
    1.4289   -2.4750    0.0000 C   0  0  0  0  0  0  0  0  0  0  0  0
    0.7145   -2.0625    0.0000 C   0  0  0  0  0  0  0  0  0  0  0  0
    0.0000   -2.4750    0.0000 C   0  0  0  0  0  0  0  0  0  0  0  0
   -0.7145   -2.0625    0.0000 C   0  0  0  0  0  0  0  0  0  0  0  0
   -1.4289   -2.4750    0.0000 C   0  0  0  0  0  0  0  0  0  0  0  0
   -2.1434   -2.0625    0.0000 C   0  0  0  0  0  0  0  0  0  0  0  0
   -2.8579   -2.4750    0.0000 N   0  0  0  0  0  0  0  0  0  0  0  0
   -3.5724   -2.0625    0.0000 C   0  0  0  0  0  0  0  0  0  0  0  0
   -3.5724   -1.2375    0.0000 O   0  0  0  0  0  0  0  0  0  0  0  0
   -4.2868   -2.4750    0.0000 C   0  0  0  0  0  0  0  0  0  0  0  0
   -4.2868   -3.3000    0.0000 C   0  0  0  0  0  0  0  0  0  0  0  0
   -5.0013   -3.7125    0.0000 N   0  0  0  0  0  0  0  0  0  0  0  0
   -5.7158   -3.3000    0.0000 C   0  0  0  0  0  0  0  0  0  0  0  0
   -6.4302   -3.7125    0.0000 N   0  0  0  0  0  0  0  0  0  0  0  0
   -7.1447   -3.3000    0.0000 C   0  0  0  0  0  0  0  0  0  0  0  0
   -7.8592   -3.7125    0.0000 C   0  0  0  0  0  0  0  0  0  0  0  0
   -8.5737   -3.3000    0.0000 C   0  0  0  0  0  0  0  0  0  0  0  0
   -8.5737   -2.4750    0.0000 C   0  0  0  0  0  0  0  0  0  0  0  0
   -7.8592   -2.0625    0.0000 C   0  0  0  0  0  0  0  0  0  0  0  0
   -7.1447   -2.4750    0.0000 C   0  0  0  0  0  0  0  0  0  0  0  0
   -6.4302   -4.5375    0.0000 C   0  0  0  0  0  0  0  0  0  0  0  0
   -5.7158   -4.9500    0.0000 C   0  0  0  0  0  0  0  0  0  0  0  0
   -5.7158   -5.7750    0.0000 C   0  0  0  0  0  0  0  0  0  0  0  0
   -6.4302   -6.1875    0.0000 C   0  0  0  0  0  0  0  0  0  0  0  0
   -7.1447   -5.7750    0.0000 C   0  0  0  0  0  0  0  0  0  0  0  0
   -7.1447   -4.9500    0.0000 C   0  0  0  0  0  0  0  0  0  0  0  0
   -5.7158   -2.4750    0.0000 N   0  0  0  0  0  0  0  0  0  0  0  0
   -5.0013   -2.0625    0.0000 C   0  0  0  0  0  0  0  0  0  0  0  0
    2.8579   -2.4750    0.0000 N   0  0  0  0  0  0  0  0  0  0  0  0
    3.5724   -2.0625    0.0000 O   0  0  0  0  0  0  0  0  0  0  0  0
  1  2  2  0  0  0  0
  2  3  1  0  0  0  0
  3  4  1  0  0  0  0
  4  5  1  0  0  0  0
  5  6  1  0  0  0  0
  6  7  1  0  0  0  0
  7  8  1  0  0  0  0
  8  9  1  0  0  0  0
  9 10  1  0  0  0  0
 10 11  2  0  0  0  0
 10 12  1  0  0  0  0
 12 13  4  0  0  0  0
 13 14  4  0  0  0  0
 14 15  4  0  0  0  0
 15 16  1  0  0  0  0
 16 17  1  0  0  0  0
 17 18  4  0  0  0  0
 18 19  4  0  0  0  0
 19 20  4  0  0  0  0
 20 21  4  0  0  0  0
 21 22  4  0  0  0  0
 17 22  4  0  0  0  0
 16 23  1  0  0  0  0
 23 24  4  0  0  0  0
 24 25  4  0  0  0  0
 25 26  4  0  0  0  0
 26 27  4  0  0  0  0
 27 28  4  0  0  0  0
 23 28  4  0  0  0  0
 15 29  4  0  0  0  0
 29 30  4  0  0  0  0
 12 30  4  0  0  0  0
  2 31  1  0  0  0  0
 31 32  1  0  0  0  0
M  END
>  <Molecule ChEMBL ID>
CHEMBL2364628

>  <Compound Key>
ACY-1215

>  <Document ChEMBL ID>
CHEMBL3774354

>  <HDAC1>
0

$$$$

  Mrv1808 03272221002D          

 41 45  0  0  0  0            999 V2000
    7.6590   -2.1582    0.0000 O   0  0  0  0  0  0  0  0  0  0  0  0
    7.6590   -2.9832    0.0000 C   0  0  0  0  0  0  0  0  0  0  0  0
    6.9445   -3.3957    0.0000 C   0  0  0  0  0  0  0  0  0  0  0  0
    6.2301   -2.9832    0.0000 C   0  0  0  0  0  0  0  0  0  0  0  0
    5.5156   -3.3957    0.0000 C   0  0  0  0  0  0  0  0  0  0  0  0
    4.8011   -2.9832    0.0000 C   0  0  0  0  0  0  0  0  0  0  0  0
    4.0866   -3.3957    0.0000 C   0  0  0  0  0  0  0  0  0  0  0  0
    3.3722   -2.9832    0.0000 N   0  0  0  0  0  0  0  0  0  0  0  0
    2.6185   -3.3187    0.0000 C   0  0  0  0  0  0  0  0  0  0  0  0
    2.0665   -2.7056    0.0000 C   0  0  0  0  0  0  0  0  0  0  0  0
    1.2460   -2.7919    0.0000 C   0  0  0  0  0  0  0  0  0  0  0  0
    0.9104   -3.5456    0.0000 C   0  0  0  0  0  0  0  0  0  0  0  0
    0.0900   -3.6318    0.0000 C   0  0  0  0  0  0  0  0  0  0  0  0
   -0.3950   -2.9644    0.0000 C   0  0  0  0  0  0  0  0  0  0  0  0
   -1.2155   -3.0506    0.0000 N   0  0  0  0  0  0  0  0  0  0  0  0
   -1.7004   -2.3832    0.0000 C   0  0  0  0  0  0  0  0  0  0  0  0
   -1.3648   -1.6295    0.0000 N   0  0  0  0  0  0  0  0  0  0  0  0
   -0.5443   -1.5432    0.0000 C   0  0  0  0  0  0  0  0  0  0  0  0
   -0.2088   -0.7896    0.0000 N   0  0  0  0  0  0  0  0  0  0  0  0
   -0.6937   -0.1221    0.0000 C   0  0  0  0  0  0  0  0  0  0  0  0
   -1.5142   -0.2084    0.0000 C   0  0  0  0  0  0  0  0  0  0  0  0
   -1.9991    0.4591    0.0000 C   0  0  0  0  0  0  0  0  0  0  0  0
   -1.6635    1.2128    0.0000 C   0  0  0  0  0  0  0  0  0  0  0  0
   -2.1485    1.8802    0.0000 O   0  0  0  0  0  0  0  0  0  0  0  0
   -1.8129    2.6339    0.0000 C   0  0  0  0  0  0  0  0  0  0  0  0
   -2.2978    3.3013    0.0000 C   0  0  0  0  0  0  0  0  0  0  0  0
   -3.1183    3.2151    0.0000 C   0  0  0  0  0  0  0  0  0  0  0  0
   -3.6032    3.8825    0.0000 C   0  0  0  0  0  0  0  0  0  0  0  0
   -3.2677    4.6362    0.0000 C   0  0  0  0  0  0  0  0  0  0  0  0
   -2.4472    4.7224    0.0000 C   0  0  0  0  0  0  0  0  0  0  0  0
   -2.1116    5.4761    0.0000 F   0  0  0  0  0  0  0  0  0  0  0  0
   -1.9623    4.0550    0.0000 C   0  0  0  0  0  0  0  0  0  0  0  0
   -0.8431    1.2990    0.0000 C   0  0  0  0  0  0  0  0  0  0  0  0
   -0.5075    2.0527    0.0000 Cl  0  0  0  0  0  0  0  0  0  0  0  0
   -0.3581    0.6315    0.0000 C   0  0  0  0  0  0  0  0  0  0  0  0
   -0.0594   -2.2107    0.0000 C   0  0  0  0  0  0  0  0  0  0  0  0
    0.7611   -2.1244    0.0000 C   0  0  0  0  0  0  0  0  0  0  0  0
    2.4790   -1.9912    0.0000 N   0  0  0  0  0  0  0  0  0  0  0  0
    3.2859   -2.1627    0.0000 N   0  0  0  0  0  0  0  0  0  0  0  0
    8.3735   -3.3957    0.0000 N   0  0  0  0  0  0  0  0  0  0  0  0
    9.0879   -2.9832    0.0000 O   0  0  0  0  0  0  0  0  0  0  0  0
  1  2  2  0  0  0  0
  2  3  1  0  0  0  0
  3  4  1  0  0  0  0
  4  5  1  0  0  0  0
  5  6  1  0  0  0  0
  6  7  1  0  0  0  0
  7  8  1  0  0  0  0
  8  9  4  0  0  0  0
  9 10  4  0  0  0  0
 10 11  1  0  0  0  0
 11 12  4  0  0  0  0
 12 13  4  0  0  0  0
 13 14  4  0  0  0  0
 14 15  4  0  0  0  0
 15 16  4  0  0  0  0
 16 17  4  0  0  0  0
 17 18  4  0  0  0  0
 18 19  1  0  0  0  0
 19 20  1  0  0  0  0
 20 21  4  0  0  0  0
 21 22  4  0  0  0  0
 22 23  4  0  0  0  0
 23 24  1  0  0  0  0
 24 25  1  0  0  0  0
 25 26  1  0  0  0  0
 26 27  4  0  0  0  0
 27 28  4  0  0  0  0
 28 29  4  0  0  0  0
 29 30  4  0  0  0  0
 30 31  1  0  0  0  0
 30 32  4  0  0  0  0
 26 32  4  0  0  0  0
 23 33  4  0  0  0  0
 33 34  1  0  0  0  0
 33 35  4  0  0  0  0
 20 35  4  0  0  0  0
 18 36  4  0  0  0  0
 14 36  4  0  0  0  0
 36 37  4  0  0  0  0
 11 37  4  0  0  0  0
 10 38  4  0  0  0  0
 38 39  4  0  0  0  0
  8 39  4  0  0  0  0
  2 40  1  0  0  0  0
 40 41  1  0  0  0  0
M  END
>  <Molecule ChEMBL ID>
CHEMBL3964033

>  <Compound Key>
9e

>  <Document ChEMBL ID>
CHEMBL3870325

>  <HDAC1>
0

$$$$

  Mrv1808 03272221002D          

 23 25  0  0  0  0            999 V2000
    2.7512    2.4134    0.0000 O   0  0  0  0  0  0  0  0  0  0  0  0
    2.0367    2.0009    0.0000 C   0  0  0  0  0  0  0  0  0  0  0  0
    1.3222    2.4134    0.0000 N   0  0  0  0  0  0  0  0  0  0  0  0
    1.3222    3.2384    0.0000 O   0  0  0  0  0  0  0  0  0  0  0  0
    2.0367    1.1759    0.0000 C   0  0  0  0  0  0  0  0  0  0  0  0
    2.7512    0.7634    0.0000 C   0  0  0  0  0  0  0  0  0  0  0  0
    2.7512   -0.0616    0.0000 C   0  0  0  0  0  0  0  0  0  0  0  0
    2.0367   -0.4741    0.0000 C   0  0  0  0  0  0  0  0  0  0  0  0
    2.0367   -1.2991    0.0000 N   0  0  0  0  0  0  0  0  0  0  0  0
    2.7041   -1.7840    0.0000 C   0  0  0  0  0  0  0  0  0  0  0  0
    2.4492   -2.5687    0.0000 C   0  0  0  0  0  0  0  0  0  0  0  0
    1.6242   -2.5687    0.0000 N   0  0  0  0  0  0  0  0  0  0  0  0
    1.1393   -3.2361    0.0000 C   0  0  0  0  0  0  0  0  0  0  0  0
    0.3188   -3.1499    0.0000 C   0  0  0  0  0  0  0  0  0  0  0  0
   -0.1661   -3.8173    0.0000 C   0  0  0  0  0  0  0  0  0  0  0  0
   -0.9866   -3.7311    0.0000 C   0  0  0  0  0  0  0  0  0  0  0  0
   -1.3222   -2.9774    0.0000 N   0  0  0  0  0  0  0  0  0  0  0  0
   -0.8372   -2.3099    0.0000 C   0  0  0  0  0  0  0  0  0  0  0  0
   -0.0168   -2.3962    0.0000 C   0  0  0  0  0  0  0  0  0  0  0  0
    1.3693   -1.7840    0.0000 C   0  0  0  0  0  0  0  0  0  0  0  0
    0.5846   -1.5291    0.0000 O   0  0  0  0  0  0  0  0  0  0  0  0
    1.3222   -0.0616    0.0000 C   0  0  0  0  0  0  0  0  0  0  0  0
    1.3222    0.7634    0.0000 C   0  0  0  0  0  0  0  0  0  0  0  0
  1  2  2  0  0  0  0
  2  3  1  0  0  0  0
  3  4  1  0  0  0  0
  2  5  1  0  0  0  0
  5  6  4  0  0  0  0
  6  7  4  0  0  0  0
  7  8  4  0  0  0  0
  8  9  1  0  0  0  0
  9 10  1  0  0  0  0
 10 11  1  0  0  0  0
 11 12  1  0  0  0  0
 12 13  1  0  0  0  0
 13 14  1  0  0  0  0
 14 15  4  0  0  0  0
 15 16  4  0  0  0  0
 16 17  4  0  0  0  0
 17 18  4  0  0  0  0
 18 19  4  0  0  0  0
 14 19  4  0  0  0  0
 12 20  1  0  0  0  0
  9 20  1  0  0  0  0
 20 21  2  0  0  0  0
  8 22  4  0  0  0  0
 22 23  4  0  0  0  0
  5 23  4  0  0  0  0
M  END
>  <Molecule ChEMBL ID>
CHEMBL3334998

>  <Compound Key>
1g

>  <Document ChEMBL ID>
CHEMBL3351615

>  <HDAC1>
0

$$$$

  Mrv1808 03272221002D          

 37 41  0  0  0  0            999 V2000
    0.0000   -5.7750    0.0000 C   0  0  0  0  0  0  0  0  0  0  0  0
    0.0000   -4.9500    0.0000 C   0  0  0  0  0  0  0  0  0  0  0  0
    0.0000   -4.1250    0.0000 C   0  0  0  0  0  0  0  0  0  0  0  0
   -0.7145   -3.7125    0.0000 C   0  0  0  0  0  0  0  0  0  0  0  0
   -0.7145   -2.8875    0.0000 C   0  0  0  0  0  0  0  0  0  0  0  0
    0.0000   -2.4750    0.0000 C   0  0  0  0  0  0  0  0  0  0  0  0
    0.7145   -2.8875    0.0000 C   0  0  0  0  0  0  0  0  0  0  0  0
    1.4289   -2.4750    0.0000 N   0  0  0  0  0  0  0  0  0  0  0  0
    1.4289   -1.6500    0.0000 C   0  0  0  0  0  0  0  0  0  0  0  0
    0.7145   -1.2375    0.0000 N   0  0  0  0  0  0  0  0  0  0  0  0
    0.7145   -0.4125    0.0000 C   0  0  0  0  0  0  0  0  0  0  0  0
    1.4289    0.0000    0.0000 N   0  0  0  0  0  0  0  0  0  0  0  0
    2.1434   -0.4125    0.0000 C   0  0  0  0  0  0  0  0  0  0  0  0
    2.8579    0.0000    0.0000 C   0  0  0  0  0  0  0  0  0  0  0  0
    3.5724   -0.4125    0.0000 C   0  0  0  0  0  0  0  0  0  0  0  0
    3.5724   -1.2375    0.0000 C   0  0  0  0  0  0  0  0  0  0  0  0
    4.2868   -1.6500    0.0000 O   0  0  0  0  0  0  0  0  0  0  0  0
    5.0013   -1.2375    0.0000 C   0  0  0  0  0  0  0  0  0  0  0  0
    5.7158   -1.6500    0.0000 C   0  0  0  0  0  0  0  0  0  0  0  0
    6.4302   -1.2375    0.0000 C   0  0  0  0  0  0  0  0  0  0  0  0
    7.1447   -1.6500    0.0000 C   0  0  0  0  0  0  0  0  0  0  0  0
    7.1447   -2.4750    0.0000 C   0  0  0  0  0  0  0  0  0  0  0  0
    7.8592   -2.8875    0.0000 C   0  0  0  0  0  0  0  0  0  0  0  0
    7.8592   -3.7125    0.0000 O   0  0  0  0  0  0  0  0  0  0  0  0
    8.5737   -2.4750    0.0000 N   0  0  0  0  0  0  0  0  0  0  0  0
    9.2881   -2.8875    0.0000 C   0  0  0  0  0  0  0  0  0  0  0  0
   10.0026   -2.4750    0.0000 C   0  0  0  0  0  0  0  0  0  0  0  0
   10.7171   -2.8875    0.0000 C   0  0  0  0  0  0  0  0  0  0  0  0
   10.7171   -3.7125    0.0000 C   0  0  0  0  0  0  0  0  0  0  0  0
   10.0026   -4.1250    0.0000 C   0  0  0  0  0  0  0  0  0  0  0  0
    9.2881   -3.7125    0.0000 C   0  0  0  0  0  0  0  0  0  0  0  0
    8.5737   -4.1250    0.0000 N   0  0  0  0  0  0  0  0  0  0  0  0
    6.4302   -2.8875    0.0000 C   0  0  0  0  0  0  0  0  0  0  0  0
    5.7158   -2.4750    0.0000 C   0  0  0  0  0  0  0  0  0  0  0  0
    2.8579   -1.6500    0.0000 C   0  0  0  0  0  0  0  0  0  0  0  0
    2.1434   -1.2375    0.0000 C   0  0  0  0  0  0  0  0  0  0  0  0
    0.7145   -3.7125    0.0000 C   0  0  0  0  0  0  0  0  0  0  0  0
  1  2  3  0  0  0  0
  2  3  1  0  0  0  0
  3  4  4  0  0  0  0
  4  5  4  0  0  0  0
  5  6  4  0  0  0  0
  6  7  4  0  0  0  0
  7  8  1  0  0  0  0
  8  9  1  0  0  0  0
  9 10  4  0  0  0  0
 10 11  4  0  0  0  0
 11 12  4  0  0  0  0
 12 13  4  0  0  0  0
 13 14  4  0  0  0  0
 14 15  4  0  0  0  0
 15 16  4  0  0  0  0
 16 17  1  0  0  0  0
 17 18  1  0  0  0  0
 18 19  1  0  0  0  0
 19 20  4  0  0  0  0
 20 21  4  0  0  0  0
 21 22  4  0  0  0  0
 22 23  1  0  0  0  0
 23 24  2  0  0  0  0
 23 25  1  0  0  0  0
 25 26  1  0  0  0  0
 26 27  4  0  0  0  0
 27 28  4  0  0  0  0
 28 29  4  0  0  0  0
 29 30  4  0  0  0  0
 30 31  4  0  0  0  0
 26 31  4  0  0  0  0
 31 32  1  0  0  0  0
 22 33  4  0  0  0  0
 33 34  4  0  0  0  0
 19 34  4  0  0  0  0
 16 35  4  0  0  0  0
 35 36  4  0  0  0  0
  9 36  4  0  0  0  0
 13 36  4  0  0  0  0
  7 37  4  0  0  0  0
  3 37  4  0  0  0  0
M  END
>  <Molecule ChEMBL ID>
CHEMBL3218000

>  <Compound Key>
9b

>  <Document ChEMBL ID>
CHEMBL3217617

>  <HDAC1>
0

$$$$

  Mrv1808 03272221002D          

 23 25  0  0  0  0            999 V2000
    2.7512    2.4134    0.0000 O   0  0  0  0  0  0  0  0  0  0  0  0
    2.0367    2.0009    0.0000 C   0  0  0  0  0  0  0  0  0  0  0  0
    1.3222    2.4134    0.0000 N   0  0  0  0  0  0  0  0  0  0  0  0
    1.3222    3.2384    0.0000 O   0  0  0  0  0  0  0  0  0  0  0  0
    2.0367    1.1759    0.0000 C   0  0  0  0  0  0  0  0  0  0  0  0
    2.7512    0.7634    0.0000 C   0  0  0  0  0  0  0  0  0  0  0  0
    2.7512   -0.0616    0.0000 C   0  0  0  0  0  0  0  0  0  0  0  0
    2.0367   -0.4741    0.0000 C   0  0  0  0  0  0  0  0  0  0  0  0
    2.0367   -1.2991    0.0000 N   0  0  0  0  0  0  0  0  0  0  0  0
    2.7041   -1.7840    0.0000 C   0  0  0  0  0  0  0  0  0  0  0  0
    2.4492   -2.5687    0.0000 C   0  0  0  0  0  0  0  0  0  0  0  0
    1.6242   -2.5687    0.0000 N   0  0  0  0  0  0  0  0  0  0  0  0
    1.1393   -3.2361    0.0000 C   0  0  0  0  0  0  0  0  0  0  0  0
    0.3188   -3.1499    0.0000 C   0  0  0  0  0  0  0  0  0  0  0  0
   -0.1661   -3.8173    0.0000 C   0  0  0  0  0  0  0  0  0  0  0  0
   -0.9866   -3.7311    0.0000 C   0  0  0  0  0  0  0  0  0  0  0  0
   -1.3222   -2.9774    0.0000 C   0  0  0  0  0  0  0  0  0  0  0  0
   -0.8372   -2.3099    0.0000 N   0  0  0  0  0  0  0  0  0  0  0  0
   -0.0168   -2.3962    0.0000 C   0  0  0  0  0  0  0  0  0  0  0  0
    1.3693   -1.7840    0.0000 C   0  0  0  0  0  0  0  0  0  0  0  0
    0.5846   -1.5291    0.0000 O   0  0  0  0  0  0  0  0  0  0  0  0
    1.3222   -0.0616    0.0000 C   0  0  0  0  0  0  0  0  0  0  0  0
    1.3222    0.7634    0.0000 C   0  0  0  0  0  0  0  0  0  0  0  0
  1  2  2  0  0  0  0
  2  3  1  0  0  0  0
  3  4  1  0  0  0  0
  2  5  1  0  0  0  0
  5  6  4  0  0  0  0
  6  7  4  0  0  0  0
  7  8  4  0  0  0  0
  8  9  1  0  0  0  0
  9 10  1  0  0  0  0
 10 11  1  0  0  0  0
 11 12  1  0  0  0  0
 12 13  1  0  0  0  0
 13 14  1  0  0  0  0
 14 15  4  0  0  0  0
 15 16  4  0  0  0  0
 16 17  4  0  0  0  0
 17 18  4  0  0  0  0
 18 19  4  0  0  0  0
 14 19  4  0  0  0  0
 12 20  1  0  0  0  0
  9 20  1  0  0  0  0
 20 21  2  0  0  0  0
  8 22  4  0  0  0  0
 22 23  4  0  0  0  0
  5 23  4  0  0  0  0
M  END
>  <Molecule ChEMBL ID>
CHEMBL3334999

>  <Compound Key>
1h

>  <Document ChEMBL ID>
CHEMBL3351615

>  <HDAC1>
0

$$$$

  Mrv1808 03272221002D          

 35 37  0  0  0  0            999 V2000
   -0.2080   -4.2937    0.0000 O   0  0  0  0  0  0  0  0  0  0  0  0
   -0.2080   -3.4687    0.0000 C   0  0  0  0  0  0  0  0  0  0  0  0
    0.5065   -3.0562    0.0000 C   0  0  0  0  0  0  0  0  0  0  0  0
    0.5065   -2.2312    0.0000 C   0  0  0  0  0  0  0  0  0  0  0  0
    1.2209   -1.8187    0.0000 C   0  0  0  0  0  0  0  0  0  0  0  0
    1.2209   -0.9937    0.0000 C   0  0  0  0  0  0  0  0  0  0  0  0
    1.9354   -0.5812    0.0000 C   0  0  0  0  0  0  0  0  0  0  0  0
    2.6499   -0.9937    0.0000 C   0  0  0  0  0  0  0  0  0  0  0  0
    3.3644   -0.5812    0.0000 C   0  0  0  0  0  0  0  0  0  0  0  0
    3.3644    0.2438    0.0000 O   0  0  0  0  0  0  0  0  0  0  0  0
    4.0788   -0.9937    0.0000 N   0  0  0  0  0  0  0  0  0  0  0  0
    4.7933   -0.5812    0.0000 C   0  0  0  0  0  0  0  0  0  0  0  0
    5.5078   -0.9937    0.0000 C   0  0  0  0  0  0  0  0  0  0  0  0
    6.2222   -0.5812    0.0000 N   0  0  0  0  0  0  0  0  0  0  0  0
    6.9367   -0.9937    0.0000 C   0  0  0  0  0  0  0  0  0  0  0  0
    7.6904   -0.6581    0.0000 N   0  0  0  0  0  0  0  0  0  0  0  0
    8.2424   -1.2712    0.0000 O   0  0  0  0  0  0  0  0  0  0  0  0
    7.8299   -1.9857    0.0000 N   0  0  0  0  0  0  0  0  0  0  0  0
    7.0229   -1.8141    0.0000 C   0  0  0  0  0  0  0  0  0  0  0  0
    6.4099   -2.3662    0.0000 C   0  0  0  0  0  0  0  0  0  0  0  0
    6.5814   -3.1731    0.0000 N   0  0  0  0  0  0  0  0  0  0  0  0
    5.9683   -3.7252    0.0000 O   0  0  0  0  0  0  0  0  0  0  0  0
    5.6252   -2.1112    0.0000 N   0  0  0  0  0  0  0  0  0  0  0  0
    5.0121   -2.6633    0.0000 C   0  0  0  0  0  0  0  0  0  0  0  0
    5.1837   -3.4702    0.0000 C   0  0  0  0  0  0  0  0  0  0  0  0
    4.5706   -4.0223    0.0000 C   0  0  0  0  0  0  0  0  0  0  0  0
    3.7859   -3.7673    0.0000 C   0  0  0  0  0  0  0  0  0  0  0  0
    3.1729   -4.3194    0.0000 F   0  0  0  0  0  0  0  0  0  0  0  0
    3.6144   -2.9604    0.0000 C   0  0  0  0  0  0  0  0  0  0  0  0
    2.8298   -2.7054    0.0000 Br  0  0  0  0  0  0  0  0  0  0  0  0
    4.2275   -2.4083    0.0000 C   0  0  0  0  0  0  0  0  0  0  0  0
    2.6499   -1.8187    0.0000 C   0  0  0  0  0  0  0  0  0  0  0  0
    1.9354   -2.2312    0.0000 C   0  0  0  0  0  0  0  0  0  0  0  0
   -0.9225   -3.0562    0.0000 N   0  0  0  0  0  0  0  0  0  0  0  0
   -1.6369   -3.4687    0.0000 O   0  0  0  0  0  0  0  0  0  0  0  0
  1  2  2  0  0  0  0
  2  3  1  0  0  0  0
  3  4  2  0  0  0  0
  4  5  1  0  0  0  0
  5  6  4  0  0  0  0
  6  7  4  0  0  0  0
  7  8  4  0  0  0  0
  8  9  1  0  0  0  0
  9 10  2  0  0  0  0
  9 11  1  0  0  0  0
 11 12  1  0  0  0  0
 12 13  1  0  0  0  0
 13 14  1  0  0  0  0
 14 15  1  0  0  0  0
 15 16  4  0  0  0  0
 16 17  4  0  0  0  0
 17 18  4  0  0  0  0
 18 19  4  0  0  0  0
 15 19  4  0  0  0  0
 19 20  1  0  0  0  0
 20 21  2  0  0  0  0
 21 22  1  0  0  0  0
 20 23  1  0  0  0  0
 23 24  1  0  0  0  0
 24 25  4  0  0  0  0
 25 26  4  0  0  0  0
 26 27  4  0  0  0  0
 27 28  1  0  0  0  0
 27 29  4  0  0  0  0
 29 30  1  0  0  0  0
 29 31  4  0  0  0  0
 24 31  4  0  0  0  0
  8 32  4  0  0  0  0
 32 33  4  0  0  0  0
  5 33  4  0  0  0  0
  2 34  1  0  0  0  0
 34 35  1  0  0  0  0
M  END
>  <Molecule ChEMBL ID>
CHEMBL4289614

>  <Compound Key>
15

>  <Document ChEMBL ID>
CHEMBL4251732

>  <HDAC1>
0

$$$$

  Mrv1808 03272221002D          

 33 34  0  0  0  0            999 V2000
    9.3112   -1.4675    0.0000 O   0  0  0  0  0  0  0  0  0  0  0  0
    9.3112   -2.2925    0.0000 C   0  0  0  0  0  0  0  0  0  0  0  0
    8.5968   -2.7050    0.0000 C   0  0  0  0  0  0  0  0  0  0  0  0
    7.8823   -2.2925    0.0000 C   0  0  0  0  0  0  0  0  0  0  0  0
    7.1678   -2.7050    0.0000 C   0  0  0  0  0  0  0  0  0  0  0  0
    6.4534   -2.2925    0.0000 C   0  0  0  0  0  0  0  0  0  0  0  0
    5.7389   -2.7050    0.0000 C   0  0  0  0  0  0  0  0  0  0  0  0
    5.0244   -2.2925    0.0000 C   0  0  0  0  0  0  0  0  0  0  0  0
    4.3099   -2.7050    0.0000 C   0  0  0  0  0  0  0  0  0  0  0  0
    4.3099   -3.5300    0.0000 O   0  0  0  0  0  0  0  0  0  0  0  0
    3.5955   -2.2925    0.0000 N   0  0  0  0  0  0  0  0  0  0  0  0
    2.8810   -2.7050    0.0000 C   0  0  0  0  0  0  0  0  0  0  0  0
    2.1665   -2.2925    0.0000 C   0  0  0  0  0  0  0  0  0  0  0  0
    1.4521   -2.7050    0.0000 N   0  0  0  0  0  0  0  0  0  0  0  0
    0.7376   -2.2925    0.0000 C   0  0  0  0  0  0  0  0  0  0  0  0
   -0.0161   -2.6280    0.0000 N   0  0  0  0  0  0  0  0  0  0  0  0
   -0.5681   -2.0149    0.0000 O   0  0  0  0  0  0  0  0  0  0  0  0
   -0.1556   -1.3005    0.0000 N   0  0  0  0  0  0  0  0  0  0  0  0
    0.6514   -1.4720    0.0000 C   0  0  0  0  0  0  0  0  0  0  0  0
    1.2644   -0.9200    0.0000 C   0  0  0  0  0  0  0  0  0  0  0  0
    1.0929   -0.1130    0.0000 N   0  0  0  0  0  0  0  0  0  0  0  0
    1.7060    0.4390    0.0000 O   0  0  0  0  0  0  0  0  0  0  0  0
    2.0491   -1.1749    0.0000 N   0  0  0  0  0  0  0  0  0  0  0  0
    2.6622   -0.6229    0.0000 C   0  0  0  0  0  0  0  0  0  0  0  0
    2.4906    0.1841    0.0000 C   0  0  0  0  0  0  0  0  0  0  0  0
    3.1037    0.7361    0.0000 C   0  0  0  0  0  0  0  0  0  0  0  0
    3.8884    0.4812    0.0000 C   0  0  0  0  0  0  0  0  0  0  0  0
    4.5014    1.0332    0.0000 F   0  0  0  0  0  0  0  0  0  0  0  0
    4.0599   -0.3258    0.0000 C   0  0  0  0  0  0  0  0  0  0  0  0
    4.8445   -0.5807    0.0000 Br  0  0  0  0  0  0  0  0  0  0  0  0
    3.4468   -0.8778    0.0000 C   0  0  0  0  0  0  0  0  0  0  0  0
   10.0257   -2.7050    0.0000 N   0  0  0  0  0  0  0  0  0  0  0  0
   10.7402   -2.2925    0.0000 O   0  0  0  0  0  0  0  0  0  0  0  0
  1  2  2  0  0  0  0
  2  3  1  0  0  0  0
  3  4  1  0  0  0  0
  4  5  1  0  0  0  0
  5  6  1  0  0  0  0
  6  7  1  0  0  0  0
  7  8  1  0  0  0  0
  8  9  1  0  0  0  0
  9 10  2  0  0  0  0
  9 11  1  0  0  0  0
 11 12  1  0  0  0  0
 12 13  1  0  0  0  0
 13 14  1  0  0  0  0
 14 15  1  0  0  0  0
 15 16  4  0  0  0  0
 16 17  4  0  0  0  0
 17 18  4  0  0  0  0
 18 19  4  0  0  0  0
 15 19  4  0  0  0  0
 19 20  1  0  0  0  0
 20 21  2  0  0  0  0
 21 22  1  0  0  0  0
 20 23  1  0  0  0  0
 23 24  1  0  0  0  0
 24 25  4  0  0  0  0
 25 26  4  0  0  0  0
 26 27  4  0  0  0  0
 27 28  1  0  0  0  0
 27 29  4  0  0  0  0
 29 30  1  0  0  0  0
 29 31  4  0  0  0  0
 24 31  4  0  0  0  0
  2 32  1  0  0  0  0
 32 33  1  0  0  0  0
M  END
>  <Molecule ChEMBL ID>
CHEMBL4283574

>  <Compound Key>
23

>  <Document ChEMBL ID>
CHEMBL4251732

>  <HDAC1>
0

$$$$

  Mrv1808 03272221002D          

 28 29  0  0  0  0            999 V2000
   -4.2868   -5.7750    0.0000 O   0  0  0  0  0  0  0  0  0  0  0  0
   -4.2868   -4.9500    0.0000 C   0  0  0  0  0  0  0  0  0  0  0  0
   -3.5724   -4.5375    0.0000 C   0  0  0  0  0  0  0  0  0  0  0  0
   -3.5724   -3.7125    0.0000 C   0  0  0  0  0  0  0  0  0  0  0  0
   -2.8579   -3.3000    0.0000 C   0  0  0  0  0  0  0  0  0  0  0  0
   -2.8579   -2.4750    0.0000 C   0  0  0  0  0  0  0  0  0  0  0  0
   -2.1434   -2.0625    0.0000 C   0  0  0  0  0  0  0  0  0  0  0  0
   -1.4289   -2.4750    0.0000 C   0  0  0  0  0  0  0  0  0  0  0  0
   -0.7145   -2.0625    0.0000 C   0  0  0  0  0  0  0  0  0  0  0  0
    0.0000   -2.4750    0.0000 C   0  0  0  0  0  0  0  0  0  0  0  0
    0.7145   -2.0625    0.0000 N   0  0  0  0  0  0  0  0  0  0  0  0
    1.4289   -2.4750    0.0000 C   0  0  0  0  0  0  0  0  0  0  0  0
    1.4289   -3.3000    0.0000 O   0  0  0  0  0  0  0  0  0  0  0  0
    2.1434   -2.0625    0.0000 C   0  0  0  0  0  0  0  0  0  0  0  0
    2.1434   -1.2375    0.0000 C   0  0  0  0  0  0  0  0  0  0  0  0
    2.8579   -0.8250    0.0000 C   0  0  0  0  0  0  0  0  0  0  0  0
    2.8579    0.0000    0.0000 C   0  0  0  0  0  0  0  0  0  0  0  0
    2.8579    0.8250    0.0000 F   0  0  0  0  0  0  0  0  0  0  0  0
    2.0329    0.0000    0.0000 F   0  0  0  0  0  0  0  0  0  0  0  0
    3.6829    0.0000    0.0000 F   0  0  0  0  0  0  0  0  0  0  0  0
    3.5724   -1.2375    0.0000 C   0  0  0  0  0  0  0  0  0  0  0  0
    3.5724   -2.0625    0.0000 C   0  0  0  0  0  0  0  0  0  0  0  0
    2.8579   -2.4750    0.0000 C   0  0  0  0  0  0  0  0  0  0  0  0
    2.8579   -3.3000    0.0000 Cl  0  0  0  0  0  0  0  0  0  0  0  0
   -1.4289   -3.3000    0.0000 C   0  0  0  0  0  0  0  0  0  0  0  0
   -2.1434   -3.7125    0.0000 C   0  0  0  0  0  0  0  0  0  0  0  0
   -5.0013   -4.5375    0.0000 N   0  0  0  0  0  0  0  0  0  0  0  0
   -5.7158   -4.9500    0.0000 O   0  0  0  0  0  0  0  0  0  0  0  0
  1  2  2  0  0  0  0
  2  3  1  0  0  0  0
  3  4  2  0  0  0  0
  4  5  1  0  0  0  0
  5  6  4  0  0  0  0
  6  7  4  0  0  0  0
  7  8  4  0  0  0  0
  8  9  1  0  0  0  0
  9 10  1  0  0  0  0
 10 11  1  0  0  0  0
 11 12  1  0  0  0  0
 12 13  2  0  0  0  0
 12 14  1  0  0  0  0
 14 15  4  0  0  0  0
 15 16  4  0  0  0  0
 16 17  1  0  0  0  0
 17 18  1  0  0  0  0
 17 19  1  0  0  0  0
 17 20  1  0  0  0  0
 16 21  4  0  0  0  0
 21 22  4  0  0  0  0
 22 23  4  0  0  0  0
 14 23  4  0  0  0  0
 23 24  1  0  0  0  0
  8 25  4  0  0  0  0
 25 26  4  0  0  0  0
  5 26  4  0  0  0  0
  2 27  1  0  0  0  0
 27 28  1  0  0  0  0
M  END
>  <Molecule ChEMBL ID>
CHEMBL4067480

>  <Compound Key>
15a

>  <Document ChEMBL ID>
CHEMBL4033641

>  <HDAC1>
0

$$$$

  Mrv1808 03272221002D          

 39 43  0  0  0  0            999 V2000
    6.2102    4.4104    0.0000 C   0  0  0  0  0  0  0  0  0  0  0  0
    6.2102    3.5854    0.0000 O   0  0  0  0  0  0  0  0  0  0  0  0
    5.4957    3.1729    0.0000 C   0  0  0  0  0  0  0  0  0  0  0  0
    5.4957    2.3479    0.0000 C   0  0  0  0  0  0  0  0  0  0  0  0
    4.7812    1.9354    0.0000 C   0  0  0  0  0  0  0  0  0  0  0  0
    4.0668    2.3479    0.0000 C   0  0  0  0  0  0  0  0  0  0  0  0
    3.3523    1.9354    0.0000 C   0  0  0  0  0  0  0  0  0  0  0  0
    3.3523    1.1104    0.0000 N   0  0  0  0  0  0  0  0  0  0  0  0
    2.6378    0.6979    0.0000 C   0  0  0  0  0  0  0  0  0  0  0  0
    2.6378   -0.1271    0.0000 N   0  0  0  0  0  0  0  0  0  0  0  0
    3.3523   -0.5396    0.0000 C   0  0  0  0  0  0  0  0  0  0  0  0
    3.3523   -1.3646    0.0000 C   0  0  0  0  0  0  0  0  0  0  0  0
    2.6378   -1.7771    0.0000 O   0  0  0  0  0  0  0  0  0  0  0  0
    1.9233   -1.3646    0.0000 C   0  0  0  0  0  0  0  0  0  0  0  0
    1.9233   -0.5396    0.0000 C   0  0  0  0  0  0  0  0  0  0  0  0
    1.9233    1.1104    0.0000 C   0  0  0  0  0  0  0  0  0  0  0  0
    1.1387    0.8555    0.0000 N   0  0  0  0  0  0  0  0  0  0  0  0
    0.6538    1.5229    0.0000 C   0  0  0  0  0  0  0  0  0  0  0  0
   -0.1712    1.5229    0.0000 C   0  0  0  0  0  0  0  0  0  0  0  0
   -0.5837    0.8085    0.0000 N   0  0  0  0  0  0  0  0  0  0  0  0
   -0.1712    0.0940    0.0000 C   0  0  0  0  0  0  0  0  0  0  0  0
   -1.4087    0.8085    0.0000 C   0  0  0  0  0  0  0  0  0  0  0  0
   -1.8212    0.0940    0.0000 N   0  0  0  0  0  0  0  0  0  0  0  0
   -2.6462    0.0940    0.0000 C   0  0  0  0  0  0  0  0  0  0  0  0
   -3.0587    0.8085    0.0000 C   0  0  0  0  0  0  0  0  0  0  0  0
   -3.8837    0.8085    0.0000 C   0  0  0  0  0  0  0  0  0  0  0  0
   -4.2962    0.0940    0.0000 O   0  0  0  0  0  0  0  0  0  0  0  0
   -4.2962    1.5229    0.0000 N   0  0  0  0  0  0  0  0  0  0  0  0
   -5.1212    1.5229    0.0000 O   0  0  0  0  0  0  0  0  0  0  0  0
   -2.6462    1.5229    0.0000 C   0  0  0  0  0  0  0  0  0  0  0  0
   -1.8212    1.5229    0.0000 N   0  0  0  0  0  0  0  0  0  0  0  0
    1.1387    2.1904    0.0000 N   0  0  0  0  0  0  0  0  0  0  0  0
    0.8838    2.9750    0.0000 C   0  0  0  0  0  0  0  0  0  0  0  0
    1.4358    3.5881    0.0000 C   0  0  0  0  0  0  0  0  0  0  0  0
    0.0768    3.1465    0.0000 C   0  0  0  0  0  0  0  0  0  0  0  0
    1.9233    1.9354    0.0000 C   0  0  0  0  0  0  0  0  0  0  0  0
    2.6378    2.3479    0.0000 N   0  0  0  0  0  0  0  0  0  0  0  0
    4.0668    3.1729    0.0000 C   0  0  0  0  0  0  0  0  0  0  0  0
    4.7812    3.5854    0.0000 N   0  0  0  0  0  0  0  0  0  0  0  0
  1  2  1  0  0  0  0
  2  3  1  0  0  0  0
  3  4  4  0  0  0  0
  4  5  4  0  0  0  0
  5  6  4  0  0  0  0
  6  7  1  0  0  0  0
  7  8  4  0  0  0  0
  8  9  4  0  0  0  0
  9 10  1  0  0  0  0
 10 11  1  0  0  0  0
 11 12  1  0  0  0  0
 12 13  1  0  0  0  0
 13 14  1  0  0  0  0
 14 15  1  0  0  0  0
 10 15  1  0  0  0  0
  9 16  4  0  0  0  0
 16 17  4  0  0  0  0
 17 18  4  0  0  0  0
 18 19  1  0  0  0  0
 19 20  1  0  0  0  0
 20 21  1  0  0  0  0
 20 22  1  0  0  0  0
 22 23  4  0  0  0  0
 23 24  4  0  0  0  0
 24 25  4  0  0  0  0
 25 26  1  0  0  0  0
 26 27  2  0  0  0  0
 26 28  1  0  0  0  0
 28 29  1  0  0  0  0
 25 30  4  0  0  0  0
 30 31  4  0  0  0  0
 22 31  4  0  0  0  0
 18 32  4  0  0  0  0
 32 33  1  0  0  0  0
 33 34  1  0  0  0  0
 33 35  1  0  0  0  0
 32 36  4  0  0  0  0
 16 36  4  0  0  0  0
 36 37  4  0  0  0  0
  7 37  4  0  0  0  0
  6 38  4  0  0  0  0
 38 39  4  0  0  0  0
  3 39  4  0  0  0  0
M  END
>  <Molecule ChEMBL ID>
CHEMBL3828337

>  <Compound Key>
18k

>  <Document ChEMBL ID>
CHEMBL3826921

>  <HDAC1>
0

$$$$

  Mrv1808 03272221002D          

 43 46  0  0  0  0            999 V2000
    8.9034    5.5923    0.0000 O   0  0  0  0  0  0  0  0  0  0  0  0
    8.9034    4.7673    0.0000 C   0  0  0  0  0  0  0  0  0  0  0  0
    8.1889    4.3548    0.0000 C   0  0  0  0  0  0  0  0  0  0  0  0
    7.4744    4.7673    0.0000 C   0  0  0  0  0  0  0  0  0  0  0  0
    6.7599    4.3548    0.0000 C   0  0  0  0  0  0  0  0  0  0  0  0
    6.0455    4.7673    0.0000 C   0  0  0  0  0  0  0  0  0  0  0  0
    5.3310    4.3548    0.0000 C   0  0  0  0  0  0  0  0  0  0  0  0
    4.6165    4.7673    0.0000 N   0  0  0  0  0  0  0  0  0  0  0  0
    3.8629    4.4317    0.0000 C   0  0  0  0  0  0  0  0  0  0  0  0
    3.3108    5.0448    0.0000 C   0  0  0  0  0  0  0  0  0  0  0  0
    2.4903    4.9586    0.0000 C   0  0  0  0  0  0  0  0  0  0  0  0
    2.1548    4.2049    0.0000 C   0  0  0  0  0  0  0  0  0  0  0  0
    1.3343    4.1187    0.0000 C   0  0  0  0  0  0  0  0  0  0  0  0
    0.8494    4.7861    0.0000 C   0  0  0  0  0  0  0  0  0  0  0  0
    0.0289    4.6999    0.0000 C   0  0  0  0  0  0  0  0  0  0  0  0
   -0.3067    3.9462    0.0000 O   0  0  0  0  0  0  0  0  0  0  0  0
   -0.4560    5.3673    0.0000 N   0  0  0  0  0  0  0  0  0  0  0  0
   -1.2765    5.2811    0.0000 C   0  0  0  0  0  0  0  0  0  0  0  0
   -1.7614    5.9485    0.0000 C   0  0  0  0  0  0  0  0  0  0  0  0
   -2.5819    5.8623    0.0000 N   0  0  0  0  0  0  0  0  0  0  0  0
   -3.0668    6.5297    0.0000 C   0  0  0  0  0  0  0  0  0  0  0  0
   -3.8918    6.5297    0.0000 N   0  0  0  0  0  0  0  0  0  0  0  0
   -4.1468    7.3144    0.0000 O   0  0  0  0  0  0  0  0  0  0  0  0
   -3.4793    7.7993    0.0000 N   0  0  0  0  0  0  0  0  0  0  0  0
   -2.8119    7.3144    0.0000 C   0  0  0  0  0  0  0  0  0  0  0  0
   -2.0273    7.5693    0.0000 C   0  0  0  0  0  0  0  0  0  0  0  0
   -1.8557    8.3763    0.0000 N   0  0  0  0  0  0  0  0  0  0  0  0
   -1.0711    8.6312    0.0000 O   0  0  0  0  0  0  0  0  0  0  0  0
   -1.4142    7.0173    0.0000 N   0  0  0  0  0  0  0  0  0  0  0  0
   -0.6296    7.2722    0.0000 C   0  0  0  0  0  0  0  0  0  0  0  0
   -0.4580    8.0792    0.0000 C   0  0  0  0  0  0  0  0  0  0  0  0
    0.3266    8.3341    0.0000 C   0  0  0  0  0  0  0  0  0  0  0  0
    0.9397    7.7821    0.0000 C   0  0  0  0  0  0  0  0  0  0  0  0
    1.7243    8.0370    0.0000 F   0  0  0  0  0  0  0  0  0  0  0  0
    0.7682    6.9751    0.0000 C   0  0  0  0  0  0  0  0  0  0  0  0
    1.3813    6.4231    0.0000 Br  0  0  0  0  0  0  0  0  0  0  0  0
   -0.0165    6.7202    0.0000 C   0  0  0  0  0  0  0  0  0  0  0  0
    1.1849    5.5398    0.0000 C   0  0  0  0  0  0  0  0  0  0  0  0
    2.0054    5.6260    0.0000 C   0  0  0  0  0  0  0  0  0  0  0  0
    3.7233    5.7593    0.0000 N   0  0  0  0  0  0  0  0  0  0  0  0
    4.5303    5.5878    0.0000 N   0  0  0  0  0  0  0  0  0  0  0  0
    9.6178    4.3548    0.0000 N   0  0  0  0  0  0  0  0  0  0  0  0
   10.3323    4.7673    0.0000 O   0  0  0  0  0  0  0  0  0  0  0  0
  1  2  2  0  0  0  0
  2  3  1  0  0  0  0
  3  4  1  0  0  0  0
  4  5  1  0  0  0  0
  5  6  1  0  0  0  0
  6  7  1  0  0  0  0
  7  8  1  0  0  0  0
  8  9  4  0  0  0  0
  9 10  4  0  0  0  0
 10 11  1  0  0  0  0
 11 12  4  0  0  0  0
 12 13  4  0  0  0  0
 13 14  4  0  0  0  0
 14 15  1  0  0  0  0
 15 16  2  0  0  0  0
 15 17  1  0  0  0  0
 17 18  1  0  0  0  0
 18 19  1  0  0  0  0
 19 20  1  0  0  0  0
 20 21  1  0  0  0  0
 21 22  4  0  0  0  0
 22 23  4  0  0  0  0
 23 24  4  0  0  0  0
 24 25  4  0  0  0  0
 21 25  4  0  0  0  0
 25 26  1  0  0  0  0
 26 27  2  0  0  0  0
 27 28  1  0  0  0  0
 26 29  1  0  0  0  0
 29 30  1  0  0  0  0
 30 31  4  0  0  0  0
 31 32  4  0  0  0  0
 32 33  4  0  0  0  0
 33 34  1  0  0  0  0
 33 35  4  0  0  0  0
 35 36  1  0  0  0  0
 35 37  4  0  0  0  0
 30 37  4  0  0  0  0
 14 38  4  0  0  0  0
 38 39  4  0  0  0  0
 11 39  4  0  0  0  0
 10 40  4  0  0  0  0
 40 41  4  0  0  0  0
  8 41  4  0  0  0  0
  2 42  1  0  0  0  0
 42 43  1  0  0  0  0
M  END
>  <Molecule ChEMBL ID>
CHEMBL4287028

>  <Compound Key>
18

>  <Document ChEMBL ID>
CHEMBL4251732

>  <HDAC1>
0

$$$$

  Mrv1808 03272221002D          

 39 42  0  0  0  0            999 V2000
   -2.8158   -4.6855    0.0000 N   0  0  0  0  0  0  0  0  0  0  0  0
   -2.8158   -3.8605    0.0000 C   0  0  0  0  0  0  0  0  0  0  0  0
   -3.5303   -3.4480    0.0000 C   0  0  0  0  0  0  0  0  0  0  0  0
   -3.5303   -2.6230    0.0000 C   0  0  0  0  0  0  0  0  0  0  0  0
   -2.8158   -2.2105    0.0000 C   0  0  0  0  0  0  0  0  0  0  0  0
   -2.1013   -2.6230    0.0000 C   0  0  0  0  0  0  0  0  0  0  0  0
   -2.1013   -3.4480    0.0000 C   0  0  0  0  0  0  0  0  0  0  0  0
   -1.3869   -3.8605    0.0000 N   0  0  0  0  0  0  0  0  0  0  0  0
   -0.6724   -3.4480    0.0000 C   0  0  0  0  0  0  0  0  0  0  0  0
   -0.6724   -2.6230    0.0000 O   0  0  0  0  0  0  0  0  0  0  0  0
    0.0421   -3.8605    0.0000 C   0  0  0  0  0  0  0  0  0  0  0  0
    0.7565   -3.4480    0.0000 C   0  0  0  0  0  0  0  0  0  0  0  0
    1.4710   -3.8605    0.0000 C   0  0  0  0  0  0  0  0  0  0  0  0
    1.4710   -4.6855    0.0000 C   0  0  0  0  0  0  0  0  0  0  0  0
    2.1855   -5.0980    0.0000 C   0  0  0  0  0  0  0  0  0  0  0  0
    2.1855   -5.9230    0.0000 O   0  0  0  0  0  0  0  0  0  0  0  0
    2.9000   -4.6855    0.0000 N   0  0  0  0  0  0  0  0  0  0  0  0
    3.6144   -5.0980    0.0000 C   0  0  0  0  0  0  0  0  0  0  0  0
    4.3289   -4.6855    0.0000 C   0  0  0  0  0  0  0  0  0  0  0  0
    5.0434   -5.0980    0.0000 N   0  0  0  0  0  0  0  0  0  0  0  0
    5.7578   -4.6855    0.0000 C   0  0  0  0  0  0  0  0  0  0  0  0
    6.5115   -5.0211    0.0000 N   0  0  0  0  0  0  0  0  0  0  0  0
    7.0635   -4.4080    0.0000 O   0  0  0  0  0  0  0  0  0  0  0  0
    6.6510   -3.6935    0.0000 N   0  0  0  0  0  0  0  0  0  0  0  0
    5.8441   -3.8651    0.0000 C   0  0  0  0  0  0  0  0  0  0  0  0
    5.2310   -3.3130    0.0000 C   0  0  0  0  0  0  0  0  0  0  0  0
    4.4464   -3.5680    0.0000 N   0  0  0  0  0  0  0  0  0  0  0  0
    3.8333   -3.0159    0.0000 O   0  0  0  0  0  0  0  0  0  0  0  0
    5.4025   -2.5061    0.0000 N   0  0  0  0  0  0  0  0  0  0  0  0
    6.1871   -2.2511    0.0000 C   0  0  0  0  0  0  0  0  0  0  0  0
    6.3587   -1.4441    0.0000 C   0  0  0  0  0  0  0  0  0  0  0  0
    7.1433   -1.1892    0.0000 C   0  0  0  0  0  0  0  0  0  0  0  0
    7.7564   -1.7412    0.0000 C   0  0  0  0  0  0  0  0  0  0  0  0
    8.5410   -1.4863    0.0000 F   0  0  0  0  0  0  0  0  0  0  0  0
    7.5848   -2.5482    0.0000 C   0  0  0  0  0  0  0  0  0  0  0  0
    8.1979   -3.1002    0.0000 Br  0  0  0  0  0  0  0  0  0  0  0  0
    6.8002   -2.8031    0.0000 C   0  0  0  0  0  0  0  0  0  0  0  0
    0.7565   -5.0980    0.0000 C   0  0  0  0  0  0  0  0  0  0  0  0
    0.0421   -4.6855    0.0000 C   0  0  0  0  0  0  0  0  0  0  0  0
  1  2  1  0  0  0  0
  2  3  4  0  0  0  0
  3  4  4  0  0  0  0
  4  5  4  0  0  0  0
  5  6  4  0  0  0  0
  6  7  4  0  0  0  0
  2  7  4  0  0  0  0
  7  8  1  0  0  0  0
  8  9  1  0  0  0  0
  9 10  2  0  0  0  0
  9 11  1  0  0  0  0
 11 12  4  0  0  0  0
 12 13  4  0  0  0  0
 13 14  4  0  0  0  0
 14 15  1  0  0  0  0
 15 16  2  0  0  0  0
 15 17  1  0  0  0  0
 17 18  1  0  0  0  0
 18 19  1  0  0  0  0
 19 20  1  0  0  0  0
 20 21  1  0  0  0  0
 21 22  4  0  0  0  0
 22 23  4  0  0  0  0
 23 24  4  0  0  0  0
 24 25  4  0  0  0  0
 21 25  4  0  0  0  0
 25 26  1  0  0  0  0
 26 27  2  0  0  0  0
 27 28  1  0  0  0  0
 26 29  1  0  0  0  0
 29 30  1  0  0  0  0
 30 31  4  0  0  0  0
 31 32  4  0  0  0  0
 32 33  4  0  0  0  0
 33 34  1  0  0  0  0
 33 35  4  0  0  0  0
 35 36  1  0  0  0  0
 35 37  4  0  0  0  0
 30 37  4  0  0  0  0
 14 38  4  0  0  0  0
 38 39  4  0  0  0  0
 11 39  4  0  0  0  0
M  END
>  <Molecule ChEMBL ID>
CHEMBL4291940

>  <Compound Key>
10

>  <Document ChEMBL ID>
CHEMBL4251732

>  <HDAC1>
0

$$$$

  Mrv1808 03272221002D          

 41 46  0  0  0  0            999 V2000
    6.2102    4.4104    0.0000 C   0  0  0  0  0  0  0  0  0  0  0  0
    6.2102    3.5854    0.0000 O   0  0  0  0  0  0  0  0  0  0  0  0
    5.4957    3.1729    0.0000 C   0  0  0  0  0  0  0  0  0  0  0  0
    5.4957    2.3479    0.0000 C   0  0  0  0  0  0  0  0  0  0  0  0
    4.7812    1.9354    0.0000 C   0  0  0  0  0  0  0  0  0  0  0  0
    4.0668    2.3479    0.0000 C   0  0  0  0  0  0  0  0  0  0  0  0
    3.3523    1.9354    0.0000 C   0  0  0  0  0  0  0  0  0  0  0  0
    3.3523    1.1104    0.0000 N   0  0  0  0  0  0  0  0  0  0  0  0
    2.6378    0.6979    0.0000 C   0  0  0  0  0  0  0  0  0  0  0  0
    2.6378   -0.1271    0.0000 N   0  0  0  0  0  0  0  0  0  0  0  0
    3.3523   -0.5396    0.0000 C   0  0  0  0  0  0  0  0  0  0  0  0
    3.3523   -1.3646    0.0000 C   0  0  0  0  0  0  0  0  0  0  0  0
    2.6378   -1.7771    0.0000 O   0  0  0  0  0  0  0  0  0  0  0  0
    1.9233   -1.3646    0.0000 C   0  0  0  0  0  0  0  0  0  0  0  0
    1.9233   -0.5396    0.0000 C   0  0  0  0  0  0  0  0  0  0  0  0
    1.9233    1.1104    0.0000 C   0  0  0  0  0  0  0  0  0  0  0  0
    1.1387    0.8555    0.0000 N   0  0  0  0  0  0  0  0  0  0  0  0
    0.6538    1.5229    0.0000 C   0  0  0  0  0  0  0  0  0  0  0  0
   -0.1712    1.5229    0.0000 C   0  0  0  0  0  0  0  0  0  0  0  0
   -0.5837    0.8085    0.0000 N   0  0  0  0  0  0  0  0  0  0  0  0
   -0.1712    0.0940    0.0000 C   0  0  0  0  0  0  0  0  0  0  0  0
   -1.4087    0.8085    0.0000 C   0  0  0  0  0  0  0  0  0  0  0  0
   -1.8212    0.0940    0.0000 N   0  0  0  0  0  0  0  0  0  0  0  0
   -2.6462    0.0940    0.0000 C   0  0  0  0  0  0  0  0  0  0  0  0
   -3.0587    0.8085    0.0000 C   0  0  0  0  0  0  0  0  0  0  0  0
   -3.8837    0.8085    0.0000 C   0  0  0  0  0  0  0  0  0  0  0  0
   -4.2962    0.0940    0.0000 O   0  0  0  0  0  0  0  0  0  0  0  0
   -4.2962    1.5229    0.0000 N   0  0  0  0  0  0  0  0  0  0  0  0
   -5.1212    1.5229    0.0000 O   0  0  0  0  0  0  0  0  0  0  0  0
   -2.6462    1.5229    0.0000 C   0  0  0  0  0  0  0  0  0  0  0  0
   -1.8212    1.5229    0.0000 N   0  0  0  0  0  0  0  0  0  0  0  0
    1.1387    2.1904    0.0000 N   0  0  0  0  0  0  0  0  0  0  0  0
    0.8838    2.9750    0.0000 C   0  0  0  0  0  0  0  0  0  0  0  0
    0.0992    3.2299    0.0000 C   0  0  0  0  0  0  0  0  0  0  0  0
    0.0992    4.0549    0.0000 C   0  0  0  0  0  0  0  0  0  0  0  0
    0.8838    4.3099    0.0000 C   0  0  0  0  0  0  0  0  0  0  0  0
    1.3687    3.6424    0.0000 C   0  0  0  0  0  0  0  0  0  0  0  0
    1.9233    1.9354    0.0000 C   0  0  0  0  0  0  0  0  0  0  0  0
    2.6378    2.3479    0.0000 N   0  0  0  0  0  0  0  0  0  0  0  0
    4.0668    3.1729    0.0000 C   0  0  0  0  0  0  0  0  0  0  0  0
    4.7812    3.5854    0.0000 N   0  0  0  0  0  0  0  0  0  0  0  0
  1  2  1  0  0  0  0
  2  3  1  0  0  0  0
  3  4  4  0  0  0  0
  4  5  4  0  0  0  0
  5  6  4  0  0  0  0
  6  7  1  0  0  0  0
  7  8  4  0  0  0  0
  8  9  4  0  0  0  0
  9 10  1  0  0  0  0
 10 11  1  0  0  0  0
 11 12  1  0  0  0  0
 12 13  1  0  0  0  0
 13 14  1  0  0  0  0
 14 15  1  0  0  0  0
 10 15  1  0  0  0  0
  9 16  4  0  0  0  0
 16 17  4  0  0  0  0
 17 18  4  0  0  0  0
 18 19  1  0  0  0  0
 19 20  1  0  0  0  0
 20 21  1  0  0  0  0
 20 22  1  0  0  0  0
 22 23  4  0  0  0  0
 23 24  4  0  0  0  0
 24 25  4  0  0  0  0
 25 26  1  0  0  0  0
 26 27  2  0  0  0  0
 26 28  1  0  0  0  0
 28 29  1  0  0  0  0
 25 30  4  0  0  0  0
 30 31  4  0  0  0  0
 22 31  4  0  0  0  0
 18 32  4  0  0  0  0
 32 33  1  0  0  0  0
 33 34  1  0  0  0  0
 34 35  1  0  0  0  0
 35 36  1  0  0  0  0
 36 37  1  0  0  0  0
 33 37  1  0  0  0  0
 32 38  4  0  0  0  0
 16 38  4  0  0  0  0
 38 39  4  0  0  0  0
  7 39  4  0  0  0  0
  6 40  4  0  0  0  0
 40 41  4  0  0  0  0
  3 41  4  0  0  0  0
M  END
>  <Molecule ChEMBL ID>
CHEMBL3828188

>  <Compound Key>
18l

>  <Document ChEMBL ID>
CHEMBL3826921

>  <HDAC1>
0

$$$$

  Mrv1808 03272221002D          

 27 29  0  0  0  0            999 V2000
    4.7812    4.4104    0.0000 O   0  0  0  0  0  0  0  0  0  0  0  0
    4.7812    3.5854    0.0000 C   0  0  0  0  0  0  0  0  0  0  0  0
    4.0668    3.1729    0.0000 C   0  0  0  0  0  0  0  0  0  0  0  0
    4.0668    2.3479    0.0000 C   0  0  0  0  0  0  0  0  0  0  0  0
    3.3523    1.9354    0.0000 C   0  0  0  0  0  0  0  0  0  0  0  0
    3.3523    1.1104    0.0000 C   0  0  0  0  0  0  0  0  0  0  0  0
    2.6378    0.6979    0.0000 C   0  0  0  0  0  0  0  0  0  0  0  0
    1.9233    1.1104    0.0000 C   0  0  0  0  0  0  0  0  0  0  0  0
    1.9233    1.9354    0.0000 C   0  0  0  0  0  0  0  0  0  0  0  0
    1.1387    2.1904    0.0000 C   0  0  0  0  0  0  0  0  0  0  0  0
    0.6538    1.5229    0.0000 C   0  0  0  0  0  0  0  0  0  0  0  0
    1.1387    0.8555    0.0000 N   0  0  0  0  0  0  0  0  0  0  0  0
    0.8838    0.0709    0.0000 S   0  0  0  0  0  0  0  0  0  0  0  0
    1.6684   -0.1841    0.0000 O   0  0  0  0  0  0  0  0  0  0  0  0
    0.0992    0.3258    0.0000 O   0  0  0  0  0  0  0  0  0  0  0  0
    0.6288   -0.7137    0.0000 C   0  0  0  0  0  0  0  0  0  0  0  0
    1.1809   -1.3268    0.0000 C   0  0  0  0  0  0  0  0  0  0  0  0
    0.9259   -2.1115    0.0000 C   0  0  0  0  0  0  0  0  0  0  0  0
    0.1190   -2.2830    0.0000 C   0  0  0  0  0  0  0  0  0  0  0  0
   -0.1360   -3.0676    0.0000 N   0  3  0  0  0  0  0  0  0  0  0  0
   -0.9429   -3.2391    0.0000 O   0  0  0  0  0  0  0  0  0  0  0  0
    0.4161   -3.6807    0.0000 O   0  5  0  0  0  0  0  0  0  0  0  0
   -0.4331   -1.6699    0.0000 C   0  0  0  0  0  0  0  0  0  0  0  0
   -0.1781   -0.8853    0.0000 C   0  0  0  0  0  0  0  0  0  0  0  0
    2.6378    2.3479    0.0000 C   0  0  0  0  0  0  0  0  0  0  0  0
    5.4957    3.1729    0.0000 N   0  0  0  0  0  0  0  0  0  0  0  0
    6.2102    3.5854    0.0000 O   0  0  0  0  0  0  0  0  0  0  0  0
  1  2  2  0  0  0  0
  2  3  1  0  0  0  0
  3  4  2  0  0  0  0
  4  5  1  0  0  0  0
  5  6  4  0  0  0  0
  6  7  4  0  0  0  0
  7  8  4  0  0  0  0
  8  9  4  0  0  0  0
  9 10  4  0  0  0  0
 10 11  4  0  0  0  0
 11 12  4  0  0  0  0
  8 12  4  0  0  0  0
 12 13  1  0  0  0  0
 13 14  2  0  0  0  0
 13 15  2  0  0  0  0
 13 16  1  0  0  0  0
 16 17  4  0  0  0  0
 17 18  4  0  0  0  0
 18 19  4  0  0  0  0
 19 20  1  0  0  0  0
 20 21  2  0  0  0  0
 20 22  1  0  0  0  0
 19 23  4  0  0  0  0
 23 24  4  0  0  0  0
 16 24  4  0  0  0  0
  9 25  4  0  0  0  0
  5 25  4  0  0  0  0
  2 26  1  0  0  0  0
 26 27  1  0  0  0  0
M  CHG  2  20   1  22  -1
M  END
>  <Molecule ChEMBL ID>
CHEMBL2048752

>  <Compound Key>
14

>  <Document ChEMBL ID>
CHEMBL2046324

>  <HDAC1>
0

$$$$

  Mrv1808 03272221002D          

 22 24  0  0  0  0            999 V2000
    4.7812    4.4104    0.0000 O   0  0  0  0  0  0  0  0  0  0  0  0
    4.7812    3.5854    0.0000 C   0  0  0  0  0  0  0  0  0  0  0  0
    4.0668    3.1729    0.0000 C   0  0  0  0  0  0  0  0  0  0  0  0
    4.0668    2.3479    0.0000 C   0  0  0  0  0  0  0  0  0  0  0  0
    3.3523    1.9354    0.0000 C   0  0  0  0  0  0  0  0  0  0  0  0
    3.3523    1.1104    0.0000 C   0  0  0  0  0  0  0  0  0  0  0  0
    2.6378    0.6979    0.0000 C   0  0  0  0  0  0  0  0  0  0  0  0
    1.9233    1.1104    0.0000 C   0  0  0  0  0  0  0  0  0  0  0  0
    1.9233    1.9354    0.0000 C   0  0  0  0  0  0  0  0  0  0  0  0
    1.1387    2.1904    0.0000 C   0  0  0  0  0  0  0  0  0  0  0  0
    0.6538    1.5229    0.0000 C   0  0  0  0  0  0  0  0  0  0  0  0
    1.1387    0.8555    0.0000 N   0  0  0  0  0  0  0  0  0  0  0  0
    0.8838    0.0709    0.0000 C   0  0  0  0  0  0  0  0  0  0  0  0
    0.0768   -0.1006    0.0000 C   0  0  0  0  0  0  0  0  0  0  0  0
   -0.1781   -0.8853    0.0000 C   0  0  0  0  0  0  0  0  0  0  0  0
   -0.9851   -1.0568    0.0000 C   0  0  0  0  0  0  0  0  0  0  0  0
   -1.5371   -0.4437    0.0000 C   0  0  0  0  0  0  0  0  0  0  0  0
   -1.2822    0.3409    0.0000 C   0  0  0  0  0  0  0  0  0  0  0  0
   -0.4752    0.5124    0.0000 C   0  0  0  0  0  0  0  0  0  0  0  0
    2.6378    2.3479    0.0000 C   0  0  0  0  0  0  0  0  0  0  0  0
    5.4957    3.1729    0.0000 N   0  0  0  0  0  0  0  0  0  0  0  0
    6.2102    3.5854    0.0000 O   0  0  0  0  0  0  0  0  0  0  0  0
  1  2  2  0  0  0  0
  2  3  1  0  0  0  0
  3  4  2  0  0  0  0
  4  5  1  0  0  0  0
  5  6  4  0  0  0  0
  6  7  4  0  0  0  0
  7  8  4  0  0  0  0
  8  9  4  0  0  0  0
  9 10  4  0  0  0  0
 10 11  4  0  0  0  0
 11 12  4  0  0  0  0
  8 12  4  0  0  0  0
 12 13  1  0  0  0  0
 13 14  1  0  0  0  0
 14 15  4  0  0  0  0
 15 16  4  0  0  0  0
 16 17  4  0  0  0  0
 17 18  4  0  0  0  0
 18 19  4  0  0  0  0
 14 19  4  0  0  0  0
  9 20  4  0  0  0  0
  5 20  4  0  0  0  0
  2 21  1  0  0  0  0
 21 22  1  0  0  0  0
M  END
>  <Molecule ChEMBL ID>
CHEMBL2048755

>  <Compound Key>
17

>  <Document ChEMBL ID>
CHEMBL2046324

>  <HDAC1>
0

$$$$

  Mrv1808 03272221002D          

 26 27  0  0  0  0            999 V2000
   -2.8579   -3.3000    0.0000 C   0  0  0  0  0  0  0  0  0  0  0  0
   -2.8579   -2.4750    0.0000 O   0  0  0  0  0  0  0  0  0  0  0  0
   -3.5724   -2.0625    0.0000 C   0  0  0  0  0  0  0  0  0  0  0  0
   -4.2868   -2.4750    0.0000 C   0  0  0  0  0  0  0  0  0  0  0  0
   -5.0013   -2.0625    0.0000 C   0  0  0  0  0  0  0  0  0  0  0  0
   -5.0013   -1.2375    0.0000 C   0  0  0  0  0  0  0  0  0  0  0  0
   -5.7158   -0.8250    0.0000 Cl  0  0  0  0  0  0  0  0  0  0  0  0
   -4.2868   -0.8250    0.0000 C   0  0  0  0  0  0  0  0  0  0  0  0
   -3.5724   -1.2375    0.0000 C   0  0  0  0  0  0  0  0  0  0  0  0
   -2.8579   -0.8250    0.0000 C   0  0  0  0  0  0  0  0  0  0  0  0
   -2.1434   -1.2375    0.0000 O   0  0  0  0  0  0  0  0  0  0  0  0
   -2.8579   -0.0000    0.0000 N   0  0  0  0  0  0  0  0  0  0  0  0
   -2.1434    0.4125    0.0000 C   0  0  0  0  0  0  0  0  0  0  0  0
   -2.1434    1.2375    0.0000 C   0  0  0  0  0  0  0  0  0  0  0  0
   -1.4289    1.6500    0.0000 C   0  0  0  0  0  0  0  0  0  0  0  0
   -1.4289    2.4750    0.0000 C   0  0  0  0  0  0  0  0  0  0  0  0
   -0.7145    2.8875    0.0000 C   0  0  0  0  0  0  0  0  0  0  0  0
    0.0000    2.4750    0.0000 C   0  0  0  0  0  0  0  0  0  0  0  0
    0.7145    2.8875    0.0000 C   0  0  0  0  0  0  0  0  0  0  0  0
    1.4289    2.4750    0.0000 C   0  0  0  0  0  0  0  0  0  0  0  0
    2.1434    2.8875    0.0000 C   0  0  0  0  0  0  0  0  0  0  0  0
    2.1434    3.7125    0.0000 O   0  0  0  0  0  0  0  0  0  0  0  0
    2.8579    2.4750    0.0000 N   0  0  0  0  0  0  0  0  0  0  0  0
    3.5724    2.8875    0.0000 O   0  0  0  0  0  0  0  0  0  0  0  0
    0.0000    1.6500    0.0000 C   0  0  0  0  0  0  0  0  0  0  0  0
   -0.7145    1.2375    0.0000 C   0  0  0  0  0  0  0  0  0  0  0  0
  1  2  1  0  0  0  0
  2  3  1  0  0  0  0
  3  4  4  0  0  0  0
  4  5  4  0  0  0  0
  5  6  4  0  0  0  0
  6  7  1  0  0  0  0
  6  8  4  0  0  0  0
  8  9  4  0  0  0  0
  3  9  4  0  0  0  0
  9 10  1  0  0  0  0
 10 11  2  0  0  0  0
 10 12  1  0  0  0  0
 12 13  1  0  0  0  0
 13 14  1  0  0  0  0
 14 15  1  0  0  0  0
 15 16  4  0  0  0  0
 16 17  4  0  0  0  0
 17 18  4  0  0  0  0
 18 19  1  0  0  0  0
 19 20  1  0  0  0  0
 20 21  1  0  0  0  0
 21 22  2  0  0  0  0
 21 23  1  0  0  0  0
 23 24  1  0  0  0  0
 18 25  4  0  0  0  0
 25 26  4  0  0  0  0
 15 26  4  0  0  0  0
M  END
>  <Molecule ChEMBL ID>
CHEMBL4089964

>  <Compound Key>
5

>  <Document ChEMBL ID>
CHEMBL4033641

>  <HDAC1>
0

$$$$

  Mrv1808 03272221002D          

 29 31  0  0  0  0            999 V2000
   -6.4302   -2.8875    0.0000 C   0  0  0  0  0  0  0  0  0  0  0  0
   -6.4302   -3.7125    0.0000 C   0  0  0  0  0  0  0  0  0  0  0  0
   -5.7158   -4.1250    0.0000 N   0  0  0  0  0  0  0  0  0  0  0  0
   -5.7158   -4.9500    0.0000 C   0  0  0  0  0  0  0  0  0  0  0  0
   -5.0013   -5.3625    0.0000 N   0  0  0  0  0  0  0  0  0  0  0  0
   -5.0013   -6.1875    0.0000 C   0  0  0  0  0  0  0  0  0  0  0  0
   -4.2868   -4.9500    0.0000 C   0  0  0  0  0  0  0  0  0  0  0  0
   -4.2868   -4.1250    0.0000 C   0  0  0  0  0  0  0  0  0  0  0  0
   -3.5724   -3.7125    0.0000 C   0  0  0  0  0  0  0  0  0  0  0  0
   -2.8579   -4.1250    0.0000 C   0  0  0  0  0  0  0  0  0  0  0  0
   -2.8579   -4.9500    0.0000 C   0  0  0  0  0  0  0  0  0  0  0  0
   -2.1434   -5.3625    0.0000 O   0  0  0  0  0  0  0  0  0  0  0  0
   -1.4289   -4.9500    0.0000 C   0  0  0  0  0  0  0  0  0  0  0  0
   -0.7145   -5.3625    0.0000 C   0  0  0  0  0  0  0  0  0  0  0  0
    0.0000   -4.9500    0.0000 C   0  0  0  0  0  0  0  0  0  0  0  0
    0.7145   -5.3625    0.0000 C   0  0  0  0  0  0  0  0  0  0  0  0
    1.4289   -4.9500    0.0000 C   0  0  0  0  0  0  0  0  0  0  0  0
    2.1434   -5.3625    0.0000 C   0  0  0  0  0  0  0  0  0  0  0  0
    2.1434   -6.1875    0.0000 O   0  0  0  0  0  0  0  0  0  0  0  0
    2.8579   -4.9500    0.0000 N   0  0  0  0  0  0  0  0  0  0  0  0
    3.5724   -5.3625    0.0000 O   0  0  0  0  0  0  0  0  0  0  0  0
   -3.5724   -5.3625    0.0000 C   0  0  0  0  0  0  0  0  0  0  0  0
   -6.4302   -5.3625    0.0000 C   0  0  0  0  0  0  0  0  0  0  0  0
   -6.4302   -6.1875    0.0000 C   0  0  0  0  0  0  0  0  0  0  0  0
   -7.1447   -6.6000    0.0000 C   0  0  0  0  0  0  0  0  0  0  0  0
   -7.8592   -6.1875    0.0000 C   0  0  0  0  0  0  0  0  0  0  0  0
   -7.8592   -5.3625    0.0000 C   0  0  0  0  0  0  0  0  0  0  0  0
   -7.1447   -4.9500    0.0000 C   0  0  0  0  0  0  0  0  0  0  0  0
   -7.1447   -4.1250    0.0000 N   0  0  0  0  0  0  0  0  0  0  0  0
  1  2  1  0  0  0  0
  2  3  4  0  0  0  0
  3  4  4  0  0  0  0
  4  5  1  0  0  0  0
  5  6  1  0  0  0  0
  5  7  1  0  0  0  0
  7  8  4  0  0  0  0
  8  9  4  0  0  0  0
  9 10  4  0  0  0  0
 10 11  4  0  0  0  0
 11 12  1  0  0  0  0
 12 13  1  0  0  0  0
 13 14  1  0  0  0  0
 14 15  1  0  0  0  0
 15 16  1  0  0  0  0
 16 17  1  0  0  0  0
 17 18  1  0  0  0  0
 18 19  2  0  0  0  0
 18 20  1  0  0  0  0
 20 21  1  0  0  0  0
 11 22  4  0  0  0  0
  7 22  4  0  0  0  0
  4 23  4  0  0  0  0
 23 24  4  0  0  0  0
 24 25  4  0  0  0  0
 25 26  4  0  0  0  0
 26 27  4  0  0  0  0
 27 28  4  0  0  0  0
 23 28  4  0  0  0  0
 28 29  4  0  0  0  0
  2 29  4  0  0  0  0
M  END
>  <Molecule ChEMBL ID>
CHEMBL3775539

>  <Compound Key>
23ad

>  <Document ChEMBL ID>
CHEMBL3774354

>  <HDAC1>
0

$$$$

  Mrv1808 03272221002D          

 36 40  0  0  0  0            999 V2000
   -3.5724   -5.3625    0.0000 N   0  0  0  0  0  0  0  0  0  0  0  0
   -4.2868   -4.9500    0.0000 C   0  0  0  0  0  0  0  0  0  0  0  0
   -5.0013   -5.3625    0.0000 C   0  0  0  0  0  0  0  0  0  0  0  0
   -5.7158   -4.9500    0.0000 C   0  0  0  0  0  0  0  0  0  0  0  0
   -5.7158   -4.1250    0.0000 C   0  0  0  0  0  0  0  0  0  0  0  0
   -5.0013   -3.7125    0.0000 C   0  0  0  0  0  0  0  0  0  0  0  0
   -4.2868   -4.1250    0.0000 C   0  0  0  0  0  0  0  0  0  0  0  0
   -3.5724   -3.7125    0.0000 N   0  0  0  0  0  0  0  0  0  0  0  0
   -3.5724   -2.8875    0.0000 C   0  0  0  0  0  0  0  0  0  0  0  0
   -4.2868   -2.4750    0.0000 O   0  0  0  0  0  0  0  0  0  0  0  0
   -2.8579   -2.4750    0.0000 C   0  0  0  0  0  0  0  0  0  0  0  0
   -2.8579   -1.6500    0.0000 C   0  0  0  0  0  0  0  0  0  0  0  0
   -2.1434   -1.2375    0.0000 C   0  0  0  0  0  0  0  0  0  0  0  0
   -1.4289   -1.6500    0.0000 C   0  0  0  0  0  0  0  0  0  0  0  0
   -0.7145   -1.2375    0.0000 C   0  0  0  0  0  0  0  0  0  0  0  0
    0.0000   -1.6500    0.0000 O   0  0  0  0  0  0  0  0  0  0  0  0
    0.7145   -1.2375    0.0000 C   0  0  0  0  0  0  0  0  0  0  0  0
    0.7145   -0.4125    0.0000 C   0  0  0  0  0  0  0  0  0  0  0  0
    1.4289    0.0000    0.0000 C   0  0  0  0  0  0  0  0  0  0  0  0
    2.1434   -0.4125    0.0000 C   0  0  0  0  0  0  0  0  0  0  0  0
    2.8579    0.0000    0.0000 N   0  0  0  0  0  0  0  0  0  0  0  0
    3.5724   -0.4125    0.0000 C   0  0  0  0  0  0  0  0  0  0  0  0
    3.5724   -1.2375    0.0000 N   0  0  0  0  0  0  0  0  0  0  0  0
    2.8579   -1.6500    0.0000 C   0  0  0  0  0  0  0  0  0  0  0  0
    2.8579   -2.4750    0.0000 N   0  0  0  0  0  0  0  0  0  0  0  0
    3.5724   -2.8875    0.0000 C   0  0  0  0  0  0  0  0  0  0  0  0
    4.2868   -2.4750    0.0000 C   0  0  0  0  0  0  0  0  0  0  0  0
    5.0013   -2.8875    0.0000 C   0  0  0  0  0  0  0  0  0  0  0  0
    5.0013   -3.7125    0.0000 C   0  0  0  0  0  0  0  0  0  0  0  0
    4.2868   -4.1250    0.0000 C   0  0  0  0  0  0  0  0  0  0  0  0
    4.2868   -4.9500    0.0000 Br  0  0  0  0  0  0  0  0  0  0  0  0
    3.5724   -3.7125    0.0000 C   0  0  0  0  0  0  0  0  0  0  0  0
    2.1434   -1.2375    0.0000 C   0  0  0  0  0  0  0  0  0  0  0  0
    1.4289   -1.6500    0.0000 C   0  0  0  0  0  0  0  0  0  0  0  0
   -1.4289   -2.4750    0.0000 C   0  0  0  0  0  0  0  0  0  0  0  0
   -2.1434   -2.8875    0.0000 C   0  0  0  0  0  0  0  0  0  0  0  0
  1  2  1  0  0  0  0
  2  3  4  0  0  0  0
  3  4  4  0  0  0  0
  4  5  4  0  0  0  0
  5  6  4  0  0  0  0
  6  7  4  0  0  0  0
  2  7  4  0  0  0  0
  7  8  1  0  0  0  0
  8  9  1  0  0  0  0
  9 10  2  0  0  0  0
  9 11  1  0  0  0  0
 11 12  4  0  0  0  0
 12 13  4  0  0  0  0
 13 14  4  0  0  0  0
 14 15  1  0  0  0  0
 15 16  1  0  0  0  0
 16 17  1  0  0  0  0
 17 18  4  0  0  0  0
 18 19  4  0  0  0  0
 19 20  4  0  0  0  0
 20 21  4  0  0  0  0
 21 22  4  0  0  0  0
 22 23  4  0  0  0  0
 23 24  4  0  0  0  0
 24 25  1  0  0  0  0
 25 26  1  0  0  0  0
 26 27  4  0  0  0  0
 27 28  4  0  0  0  0
 28 29  4  0  0  0  0
 29 30  4  0  0  0  0
 30 31  1  0  0  0  0
 30 32  4  0  0  0  0
 26 32  4  0  0  0  0
 24 33  4  0  0  0  0
 20 33  4  0  0  0  0
 33 34  4  0  0  0  0
 17 34  4  0  0  0  0
 14 35  4  0  0  0  0
 35 36  4  0  0  0  0
 11 36  4  0  0  0  0
M  END
>  <Molecule ChEMBL ID>
CHEMBL3217993

>  <Compound Key>
9a

>  <Document ChEMBL ID>
CHEMBL3217617

>  <HDAC1>
0

$$$$

  Mrv1808 03272221002D          

 26 28  0  0  0  0            999 V2000
    1.4289   -3.3000    0.0000 C   0  0  0  0  0  0  0  0  0  0  0  0
    2.1434   -3.7125    0.0000 N   0  0  0  0  0  0  0  0  0  0  0  0
    2.8579   -3.3000    0.0000 C   0  0  0  0  0  0  0  0  0  0  0  0
    2.8579   -2.4750    0.0000 C   0  0  0  0  0  0  0  0  0  0  0  0
    3.5724   -2.0625    0.0000 C   0  0  0  0  0  0  0  0  0  0  0  0
    4.2868   -2.4750    0.0000 C   0  0  0  0  0  0  0  0  0  0  0  0
    5.0013   -2.0625    0.0000 O   0  0  0  0  0  0  0  0  0  0  0  0
    5.7158   -2.4750    0.0000 C   0  0  0  0  0  0  0  0  0  0  0  0
    6.4302   -2.0625    0.0000 C   0  0  0  0  0  0  0  0  0  0  0  0
    7.1447   -2.4750    0.0000 C   0  0  0  0  0  0  0  0  0  0  0  0
    7.8592   -2.0625    0.0000 C   0  0  0  0  0  0  0  0  0  0  0  0
    7.8592   -1.2375    0.0000 O   0  0  0  0  0  0  0  0  0  0  0  0
    8.5737   -2.4750    0.0000 N   0  0  0  0  0  0  0  0  0  0  0  0
    9.2881   -2.0625    0.0000 O   0  0  0  0  0  0  0  0  0  0  0  0
    4.2868   -3.3000    0.0000 C   0  0  0  0  0  0  0  0  0  0  0  0
    3.5724   -3.7125    0.0000 C   0  0  0  0  0  0  0  0  0  0  0  0
    2.1434   -4.5375    0.0000 C   0  0  0  0  0  0  0  0  0  0  0  0
    2.8579   -4.9500    0.0000 N   0  0  0  0  0  0  0  0  0  0  0  0
    2.8579   -5.7750    0.0000 C   0  0  0  0  0  0  0  0  0  0  0  0
    2.1434   -6.1875    0.0000 N   0  0  0  0  0  0  0  0  0  0  0  0
    1.4289   -5.7750    0.0000 C   0  0  0  0  0  0  0  0  0  0  0  0
    0.7145   -6.1875    0.0000 C   0  0  0  0  0  0  0  0  0  0  0  0
    0.0000   -5.7750    0.0000 C   0  0  0  0  0  0  0  0  0  0  0  0
    0.0000   -4.9500    0.0000 C   0  0  0  0  0  0  0  0  0  0  0  0
    0.7145   -4.5375    0.0000 C   0  0  0  0  0  0  0  0  0  0  0  0
    1.4289   -4.9500    0.0000 C   0  0  0  0  0  0  0  0  0  0  0  0
  1  2  1  0  0  0  0
  2  3  1  0  0  0  0
  3  4  4  0  0  0  0
  4  5  4  0  0  0  0
  5  6  4  0  0  0  0
  6  7  1  0  0  0  0
  7  8  1  0  0  0  0
  8  9  1  0  0  0  0
  9 10  1  0  0  0  0
 10 11  1  0  0  0  0
 11 12  2  0  0  0  0
 11 13  1  0  0  0  0
 13 14  1  0  0  0  0
  6 15  4  0  0  0  0
 15 16  4  0  0  0  0
  3 16  4  0  0  0  0
  2 17  1  0  0  0  0
 17 18  4  0  0  0  0
 18 19  4  0  0  0  0
 19 20  4  0  0  0  0
 20 21  4  0  0  0  0
 21 22  4  0  0  0  0
 22 23  4  0  0  0  0
 23 24  4  0  0  0  0
 24 25  4  0  0  0  0
 25 26  4  0  0  0  0
 17 26  4  0  0  0  0
 21 26  4  0  0  0  0
M  END
>  <Molecule ChEMBL ID>
CHEMBL3775209

>  <Compound Key>
10b

>  <Document ChEMBL ID>
CHEMBL3774354

>  <HDAC1>
0

$$$$

  Mrv1808 03272221002D          

 27 29  0  0  0  0            999 V2000
   -3.3554    8.1567    0.0000 C   0  0  0  0  0  0  0  0  0  0  0  0
   -3.1004    7.3721    0.0000 O   0  0  0  0  0  0  0  0  0  0  0  0
   -2.2935    7.2006    0.0000 C   0  0  0  0  0  0  0  0  0  0  0  0
   -1.7414    7.8137    0.0000 C   0  0  0  0  0  0  0  0  0  0  0  0
   -0.9345    7.6421    0.0000 C   0  0  0  0  0  0  0  0  0  0  0  0
   -0.6795    6.8575    0.0000 C   0  0  0  0  0  0  0  0  0  0  0  0
   -1.2316    6.2444    0.0000 C   0  0  0  0  0  0  0  0  0  0  0  0
   -0.9766    5.4598    0.0000 C   0  0  0  0  0  0  0  0  0  0  0  0
   -0.1696    5.2883    0.0000 C   0  0  0  0  0  0  0  0  0  0  0  0
    0.0853    4.5036    0.0000 C   0  0  0  0  0  0  0  0  0  0  0  0
   -0.4667    3.8905    0.0000 C   0  0  0  0  0  0  0  0  0  0  0  0
   -0.3805    3.0701    0.0000 C   0  0  0  0  0  0  0  0  0  0  0  0
    0.3340    2.6576    0.0000 N   0  0  0  0  0  0  0  0  0  0  0  0
    1.0484    3.0701    0.0000 C   0  0  0  0  0  0  0  0  0  0  0  0
    1.0484    3.8951    0.0000 O   0  0  0  0  0  0  0  0  0  0  0  0
    1.7629    2.6576    0.0000 C   0  0  0  0  0  0  0  0  0  0  0  0
    2.4774    3.0701    0.0000 C   0  0  0  0  0  0  0  0  0  0  0  0
    3.1918    2.6576    0.0000 C   0  0  0  0  0  0  0  0  0  0  0  0
    3.9063    3.0701    0.0000 C   0  0  0  0  0  0  0  0  0  0  0  0
    3.9063    3.8951    0.0000 O   0  0  0  0  0  0  0  0  0  0  0  0
    4.6208    2.6576    0.0000 N   0  0  0  0  0  0  0  0  0  0  0  0
    5.3353    3.0701    0.0000 O   0  0  0  0  0  0  0  0  0  0  0  0
   -1.1342    2.7345    0.0000 N   0  0  0  0  0  0  0  0  0  0  0  0
   -1.6862    3.3476    0.0000 N   0  0  0  0  0  0  0  0  0  0  0  0
   -1.2737    4.0621    0.0000 C   0  0  0  0  0  0  0  0  0  0  0  0
   -1.5287    4.8467    0.0000 C   0  0  0  0  0  0  0  0  0  0  0  0
   -2.0385    6.4159    0.0000 C   0  0  0  0  0  0  0  0  0  0  0  0
  1  2  1  0  0  0  0
  2  3  1  0  0  0  0
  3  4  4  0  0  0  0
  4  5  4  0  0  0  0
  5  6  4  0  0  0  0
  6  7  4  0  0  0  0
  7  8  1  0  0  0  0
  8  9  4  0  0  0  0
  9 10  4  0  0  0  0
 10 11  4  0  0  0  0
 11 12  4  0  0  0  0
 12 13  1  0  0  0  0
 13 14  1  0  0  0  0
 14 15  2  0  0  0  0
 14 16  1  0  0  0  0
 16 17  1  0  0  0  0
 17 18  1  0  0  0  0
 18 19  1  0  0  0  0
 19 20  2  0  0  0  0
 19 21  1  0  0  0  0
 21 22  1  0  0  0  0
 12 23  4  0  0  0  0
 23 24  4  0  0  0  0
 24 25  4  0  0  0  0
 11 25  4  0  0  0  0
 25 26  4  0  0  0  0
  8 26  4  0  0  0  0
  7 27  4  0  0  0  0
  3 27  4  0  0  0  0
M  STY  1   1 DAT
M  SAL   1  1  24
M  SDT   1 MRV_IMPLICIT_H                                        
M  SDD   1     0.5304   -0.4125    DR    ALL  0       0  
M  SED   1 IMPL_H1
M  END
>  <Molecule ChEMBL ID>
CHEMBL4779831

>  <Compound Key>
15q

>  <Document ChEMBL ID>
CHEMBL4765277

>  <HDAC1>
0

$$$$

  Mrv1808 03272221002D          

 33 36  0  0  0  0            999 V2000
    4.7812    1.9354    0.0000 C   0  0  0  0  0  0  0  0  0  0  0  0
    4.0668    2.3479    0.0000 O   0  0  0  0  0  0  0  0  0  0  0  0
    3.3523    1.9354    0.0000 C   0  0  0  0  0  0  0  0  0  0  0  0
    3.3523    1.1104    0.0000 C   0  0  0  0  0  0  0  0  0  0  0  0
    2.6378    0.6979    0.0000 C   0  0  0  0  0  0  0  0  0  0  0  0
    1.9233    1.1104    0.0000 C   0  0  0  0  0  0  0  0  0  0  0  0
    1.1387    0.8555    0.0000 N   0  0  0  0  0  0  0  0  0  0  0  0
    0.6538    1.5229    0.0000 C   0  0  0  0  0  0  0  0  0  0  0  0
    1.1387    2.1904    0.0000 C   0  0  0  0  0  0  0  0  0  0  0  0
    0.8838    2.9750    0.0000 C   0  0  0  0  0  0  0  0  0  0  0  0
    1.4358    3.5881    0.0000 N   0  0  0  0  0  0  0  0  0  0  0  0
    1.2643    4.3951    0.0000 C   0  0  0  0  0  0  0  0  0  0  0  0
    1.9788    4.8076    0.0000 C   0  0  0  0  0  0  0  0  0  0  0  0
    2.0650    5.6280    0.0000 C   0  0  0  0  0  0  0  0  0  0  0  0
    1.3976    6.1130    0.0000 O   0  0  0  0  0  0  0  0  0  0  0  0
    1.4838    6.9335    0.0000 C   0  0  0  0  0  0  0  0  0  0  0  0
    0.8164    7.4184    0.0000 C   0  0  0  0  0  0  0  0  0  0  0  0
    0.9026    8.2389    0.0000 C   0  0  0  0  0  0  0  0  0  0  0  0
    1.6563    8.5744    0.0000 C   0  0  0  0  0  0  0  0  0  0  0  0
    1.7425    9.3949    0.0000 C   0  0  0  0  0  0  0  0  0  0  0  0
    2.4962    9.7305    0.0000 C   0  0  0  0  0  0  0  0  0  0  0  0
    2.5824   10.5509    0.0000 C   0  0  0  0  0  0  0  0  0  0  0  0
    1.9150   11.0359    0.0000 O   0  0  0  0  0  0  0  0  0  0  0  0
    3.3361   10.8865    0.0000 N   0  0  0  0  0  0  0  0  0  0  0  0
    3.4223   11.7070    0.0000 O   0  0  0  0  0  0  0  0  0  0  0  0
    2.3237    8.0895    0.0000 C   0  0  0  0  0  0  0  0  0  0  0  0
    2.2375    7.2690    0.0000 C   0  0  0  0  0  0  0  0  0  0  0  0
    2.9049    6.7841    0.0000 O   0  0  0  0  0  0  0  0  0  0  0  0
    2.8187    5.9636    0.0000 C   0  0  0  0  0  0  0  0  0  0  0  0
    2.5919    4.2555    0.0000 N   0  0  0  0  0  0  0  0  0  0  0  0
    2.2563    3.5019    0.0000 N   0  0  0  0  0  0  0  0  0  0  0  0
    1.9233    1.9354    0.0000 C   0  0  0  0  0  0  0  0  0  0  0  0
    2.6378    2.3479    0.0000 C   0  0  0  0  0  0  0  0  0  0  0  0
  1  2  1  0  0  0  0
  2  3  1  0  0  0  0
  3  4  4  0  0  0  0
  4  5  4  0  0  0  0
  5  6  4  0  0  0  0
  6  7  4  0  0  0  0
  7  8  4  0  0  0  0
  8  9  4  0  0  0  0
  9 10  1  0  0  0  0
 10 11  1  0  0  0  0
 11 12  4  0  0  0  0
 12 13  4  0  0  0  0
 13 14  1  0  0  0  0
 14 15  1  0  0  0  0
 15 16  1  0  0  0  0
 16 17  4  0  0  0  0
 17 18  4  0  0  0  0
 18 19  4  0  0  0  0
 19 20  1  0  0  0  0
 20 21  2  0  0  0  0
 21 22  1  0  0  0  0
 22 23  2  0  0  0  0
 22 24  1  0  0  0  0
 24 25  1  0  0  0  0
 19 26  4  0  0  0  0
 26 27  4  0  0  0  0
 16 27  4  0  0  0  0
 27 28  1  0  0  0  0
 28 29  1  0  0  0  0
 13 30  4  0  0  0  0
 30 31  4  0  0  0  0
 11 31  4  0  0  0  0
  9 32  4  0  0  0  0
  6 32  4  0  0  0  0
 32 33  4  0  0  0  0
  3 33  4  0  0  0  0
M  STY  1   1 DAT
M  SAL   1  1   7
M  SDT   1 MRV_IMPLICIT_H                                        
M  SDD   1     0.5304   -0.4125    DR    ALL  0       0  
M  SED   1 IMPL_H1
M  END
>  <Molecule ChEMBL ID>
CHEMBL4207448

>  <Compound Key>
38a

>  <Document ChEMBL ID>
CHEMBL4342416

>  <HDAC1>
0

$$$$

  Mrv1808 03272221002D          

 27 29  0  0  0  0            999 V2000
    2.7512    2.4134    0.0000 O   0  0  0  0  0  0  0  0  0  0  0  0
    2.0367    2.0009    0.0000 C   0  0  0  0  0  0  0  0  0  0  0  0
    1.3222    2.4134    0.0000 N   0  0  0  0  0  0  0  0  0  0  0  0
    1.3222    3.2384    0.0000 O   0  0  0  0  0  0  0  0  0  0  0  0
    2.0367    1.1759    0.0000 C   0  0  0  0  0  0  0  0  0  0  0  0
    2.7512    0.7634    0.0000 C   0  0  0  0  0  0  0  0  0  0  0  0
    2.7512   -0.0616    0.0000 C   0  0  0  0  0  0  0  0  0  0  0  0
    2.0367   -0.4741    0.0000 C   0  0  0  0  0  0  0  0  0  0  0  0
    2.0367   -1.2991    0.0000 N   0  0  0  0  0  0  0  0  0  0  0  0
    2.7041   -1.7840    0.0000 C   0  0  0  0  0  0  0  0  0  0  0  0
    2.4492   -2.5687    0.0000 C   0  0  0  0  0  0  0  0  0  0  0  0
    1.6242   -2.5687    0.0000 N   0  0  0  0  0  0  0  0  0  0  0  0
    1.1393   -3.2361    0.0000 C   0  0  0  0  0  0  0  0  0  0  0  0
    0.3188   -3.1499    0.0000 C   0  0  0  0  0  0  0  0  0  0  0  0
   -0.1661   -3.8173    0.0000 C   0  0  0  0  0  0  0  0  0  0  0  0
   -0.9866   -3.7311    0.0000 C   0  0  0  0  0  0  0  0  0  0  0  0
   -1.3222   -2.9774    0.0000 C   0  0  0  0  0  0  0  0  0  0  0  0
   -2.1426   -2.8911    0.0000 C   0  0  0  0  0  0  0  0  0  0  0  0
   -2.9631   -2.8049    0.0000 F   0  0  0  0  0  0  0  0  0  0  0  0
   -2.0564   -2.0707    0.0000 F   0  0  0  0  0  0  0  0  0  0  0  0
   -2.2289   -3.7116    0.0000 F   0  0  0  0  0  0  0  0  0  0  0  0
   -0.8372   -2.3099    0.0000 C   0  0  0  0  0  0  0  0  0  0  0  0
   -0.0168   -2.3962    0.0000 C   0  0  0  0  0  0  0  0  0  0  0  0
    1.3693   -1.7840    0.0000 C   0  0  0  0  0  0  0  0  0  0  0  0
    0.5846   -1.5291    0.0000 O   0  0  0  0  0  0  0  0  0  0  0  0
    1.3222   -0.0616    0.0000 C   0  0  0  0  0  0  0  0  0  0  0  0
    1.3222    0.7634    0.0000 C   0  0  0  0  0  0  0  0  0  0  0  0
  1  2  2  0  0  0  0
  2  3  1  0  0  0  0
  3  4  1  0  0  0  0
  2  5  1  0  0  0  0
  5  6  4  0  0  0  0
  6  7  4  0  0  0  0
  7  8  4  0  0  0  0
  8  9  1  0  0  0  0
  9 10  1  0  0  0  0
 10 11  1  0  0  0  0
 11 12  1  0  0  0  0
 12 13  1  0  0  0  0
 13 14  1  0  0  0  0
 14 15  4  0  0  0  0
 15 16  4  0  0  0  0
 16 17  4  0  0  0  0
 17 18  1  0  0  0  0
 18 19  1  0  0  0  0
 18 20  1  0  0  0  0
 18 21  1  0  0  0  0
 17 22  4  0  0  0  0
 22 23  4  0  0  0  0
 14 23  4  0  0  0  0
 12 24  1  0  0  0  0
  9 24  1  0  0  0  0
 24 25  2  0  0  0  0
  8 26  4  0  0  0  0
 26 27  4  0  0  0  0
  5 27  4  0  0  0  0
M  END
>  <Molecule ChEMBL ID>
CHEMBL3334997

>  <Compound Key>
1f

>  <Document ChEMBL ID>
CHEMBL3351615

>  <HDAC1>
0

$$$$

  Mrv1808 03272221002D          

 39 43  0  0  0  0            999 V2000
    0.0000   -5.7750    0.0000 C   0  0  0  0  0  0  0  0  0  0  0  0
    0.0000   -4.9500    0.0000 C   0  0  0  0  0  0  0  0  0  0  0  0
    0.0000   -4.1250    0.0000 C   0  0  0  0  0  0  0  0  0  0  0  0
   -0.7145   -3.7125    0.0000 C   0  0  0  0  0  0  0  0  0  0  0  0
   -0.7145   -2.8875    0.0000 C   0  0  0  0  0  0  0  0  0  0  0  0
    0.0000   -2.4750    0.0000 C   0  0  0  0  0  0  0  0  0  0  0  0
    0.7145   -2.8875    0.0000 C   0  0  0  0  0  0  0  0  0  0  0  0
    1.4289   -2.4750    0.0000 N   0  0  0  0  0  0  0  0  0  0  0  0
    1.4289   -1.6500    0.0000 C   0  0  0  0  0  0  0  0  0  0  0  0
    0.7145   -1.2375    0.0000 N   0  0  0  0  0  0  0  0  0  0  0  0
    0.7145   -0.4125    0.0000 C   0  0  0  0  0  0  0  0  0  0  0  0
    1.4289    0.0000    0.0000 N   0  0  0  0  0  0  0  0  0  0  0  0
    2.1434   -0.4125    0.0000 C   0  0  0  0  0  0  0  0  0  0  0  0
    2.8579    0.0000    0.0000 C   0  0  0  0  0  0  0  0  0  0  0  0
    3.5724   -0.4125    0.0000 C   0  0  0  0  0  0  0  0  0  0  0  0
    3.5724   -1.2375    0.0000 C   0  0  0  0  0  0  0  0  0  0  0  0
    4.2868   -1.6500    0.0000 S   0  0  0  0  0  0  0  0  0  0  0  0
    3.8743   -2.3645    0.0000 O   0  0  0  0  0  0  0  0  0  0  0  0
    4.6993   -0.9355    0.0000 O   0  0  0  0  0  0  0  0  0  0  0  0
    5.0013   -2.0625    0.0000 N   0  0  0  0  0  0  0  0  0  0  0  0
    5.7550   -1.7269    0.0000 C   0  0  0  0  0  0  0  0  0  0  0  0
    6.3070   -2.3400    0.0000 C   0  0  0  0  0  0  0  0  0  0  0  0
    5.8945   -3.0545    0.0000 C   0  0  0  0  0  0  0  0  0  0  0  0
    6.2301   -3.8082    0.0000 C   0  0  0  0  0  0  0  0  0  0  0  0
    5.7451   -4.4756    0.0000 C   0  0  0  0  0  0  0  0  0  0  0  0
    6.0807   -5.2293    0.0000 C   0  0  0  0  0  0  0  0  0  0  0  0
    5.5958   -5.8967    0.0000 O   0  0  0  0  0  0  0  0  0  0  0  0
    6.9012   -5.3155    0.0000 N   0  0  0  0  0  0  0  0  0  0  0  0
    7.2367   -6.0692    0.0000 C   0  0  0  0  0  0  0  0  0  0  0  0
    8.0572   -6.1554    0.0000 C   0  0  0  0  0  0  0  0  0  0  0  0
    8.3928   -6.9091    0.0000 C   0  0  0  0  0  0  0  0  0  0  0  0
    7.9079   -7.5766    0.0000 C   0  0  0  0  0  0  0  0  0  0  0  0
    7.0874   -7.4903    0.0000 C   0  0  0  0  0  0  0  0  0  0  0  0
    6.7518   -6.7366    0.0000 C   0  0  0  0  0  0  0  0  0  0  0  0
    5.9313   -6.6504    0.0000 N   0  0  0  0  0  0  0  0  0  0  0  0
    5.0875   -2.8830    0.0000 C   0  0  0  0  0  0  0  0  0  0  0  0
    2.8579   -1.6500    0.0000 C   0  0  0  0  0  0  0  0  0  0  0  0
    2.1434   -1.2375    0.0000 C   0  0  0  0  0  0  0  0  0  0  0  0
    0.7145   -3.7125    0.0000 C   0  0  0  0  0  0  0  0  0  0  0  0
  1  2  3  0  0  0  0
  2  3  1  0  0  0  0
  3  4  4  0  0  0  0
  4  5  4  0  0  0  0
  5  6  4  0  0  0  0
  6  7  4  0  0  0  0
  7  8  1  0  0  0  0
  8  9  1  0  0  0  0
  9 10  4  0  0  0  0
 10 11  4  0  0  0  0
 11 12  4  0  0  0  0
 12 13  4  0  0  0  0
 13 14  4  0  0  0  0
 14 15  4  0  0  0  0
 15 16  4  0  0  0  0
 16 17  1  0  0  0  0
 17 18  2  0  0  0  0
 17 19  2  0  0  0  0
 17 20  1  0  0  0  0
 20 21  4  0  0  0  0
 21 22  4  0  0  0  0
 22 23  4  0  0  0  0
 23 24  1  0  0  0  0
 24 25  2  0  0  0  0
 25 26  1  0  0  0  0
 26 27  2  0  0  0  0
 26 28  1  0  0  0  0
 28 29  1  0  0  0  0
 29 30  4  0  0  0  0
 30 31  4  0  0  0  0
 31 32  4  0  0  0  0
 32 33  4  0  0  0  0
 33 34  4  0  0  0  0
 29 34  4  0  0  0  0
 34 35  1  0  0  0  0
 23 36  4  0  0  0  0
 20 36  4  0  0  0  0
 16 37  4  0  0  0  0
 37 38  4  0  0  0  0
  9 38  4  0  0  0  0
 13 38  4  0  0  0  0
  7 39  4  0  0  0  0
  3 39  4  0  0  0  0
M  END
>  <Molecule ChEMBL ID>
CHEMBL3218001

>  <Compound Key>
10

>  <Document ChEMBL ID>
CHEMBL3217617

>  <HDAC1>
0

$$$$

  Mrv1808 03272221002D          

 29 31  0  0  0  0            999 V2000
    7.1447   -4.1250    0.0000 N   0  0  0  0  0  0  0  0  0  0  0  0
    7.1447   -4.9500    0.0000 C   0  0  0  0  0  0  0  0  0  0  0  0
    7.8592   -5.3625    0.0000 C   0  0  0  0  0  0  0  0  0  0  0  0
    7.8592   -6.1875    0.0000 C   0  0  0  0  0  0  0  0  0  0  0  0
    7.1447   -6.6000    0.0000 C   0  0  0  0  0  0  0  0  0  0  0  0
    7.1447   -7.4250    0.0000 F   0  0  0  0  0  0  0  0  0  0  0  0
    6.4302   -6.1875    0.0000 C   0  0  0  0  0  0  0  0  0  0  0  0
    6.4302   -5.3625    0.0000 C   0  0  0  0  0  0  0  0  0  0  0  0
    5.7158   -4.9500    0.0000 N   0  0  0  0  0  0  0  0  0  0  0  0
    5.0013   -5.3625    0.0000 C   0  0  0  0  0  0  0  0  0  0  0  0
    5.0013   -6.1875    0.0000 O   0  0  0  0  0  0  0  0  0  0  0  0
    4.2868   -4.9500    0.0000 C   0  0  0  0  0  0  0  0  0  0  0  0
    3.5724   -5.3625    0.0000 C   0  0  0  0  0  0  0  0  0  0  0  0
    2.8579   -4.9500    0.0000 C   0  0  0  0  0  0  0  0  0  0  0  0
    2.8579   -4.1250    0.0000 C   0  0  0  0  0  0  0  0  0  0  0  0
    2.1434   -3.7125    0.0000 C   0  0  0  0  0  0  0  0  0  0  0  0
    2.1434   -2.8875    0.0000 N   0  0  0  0  0  0  0  0  0  0  0  0
    1.4289   -2.4750    0.0000 C   0  0  0  0  0  0  0  0  0  0  0  0
    0.7145   -2.8875    0.0000 O   0  0  0  0  0  0  0  0  0  0  0  0
    1.4289   -1.6500    0.0000 C   0  0  0  0  0  0  0  0  0  0  0  0
    0.7145   -1.2375    0.0000 C   0  0  0  0  0  0  0  0  0  0  0  0
    0.7145   -0.4125    0.0000 C   0  0  0  0  0  0  0  0  0  0  0  0
    0.0000    0.0000    0.0000 C   0  0  0  0  0  0  0  0  0  0  0  0
    0.0000    0.8250    0.0000 C   0  0  0  0  0  0  0  0  0  0  0  0
    0.7145    1.2375    0.0000 C   0  0  0  0  0  0  0  0  0  0  0  0
    1.4289    0.8250    0.0000 N   0  0  0  0  0  0  0  0  0  0  0  0
    1.4289    0.0000    0.0000 C   0  0  0  0  0  0  0  0  0  0  0  0
    3.5724   -3.7125    0.0000 C   0  0  0  0  0  0  0  0  0  0  0  0
    4.2868   -4.1250    0.0000 C   0  0  0  0  0  0  0  0  0  0  0  0
  1  2  1  0  0  0  0
  2  3  4  0  0  0  0
  3  4  4  0  0  0  0
  4  5  4  0  0  0  0
  5  6  1  0  0  0  0
  5  7  4  0  0  0  0
  7  8  4  0  0  0  0
  2  8  4  0  0  0  0
  8  9  1  0  0  0  0
  9 10  1  0  0  0  0
 10 11  2  0  0  0  0
 10 12  1  0  0  0  0
 12 13  4  0  0  0  0
 13 14  4  0  0  0  0
 14 15  4  0  0  0  0
 15 16  1  0  0  0  0
 16 17  1  0  0  0  0
 17 18  1  0  0  0  0
 18 19  2  0  0  0  0
 18 20  1  0  0  0  0
 20 21  2  0  0  0  0
 21 22  1  0  0  0  0
 22 23  4  0  0  0  0
 23 24  4  0  0  0  0
 24 25  4  0  0  0  0
 25 26  4  0  0  0  0
 26 27  4  0  0  0  0
 22 27  4  0  0  0  0
 15 28  4  0  0  0  0
 28 29  4  0  0  0  0
 12 29  4  0  0  0  0
M  END
>  <Molecule ChEMBL ID>
CHEMBL4087968

>  <Compound Key>
28

>  <Document ChEMBL ID>
CHEMBL4342416

>  <HDAC1>
0

$$$$

  Mrv1808 03272221002D          

 39 43  0  0  0  0            999 V2000
    6.2102    4.4104    0.0000 C   0  0  0  0  0  0  0  0  0  0  0  0
    6.2102    3.5854    0.0000 O   0  0  0  0  0  0  0  0  0  0  0  0
    5.4957    3.1729    0.0000 C   0  0  0  0  0  0  0  0  0  0  0  0
    5.4957    2.3479    0.0000 C   0  0  0  0  0  0  0  0  0  0  0  0
    4.7812    1.9354    0.0000 C   0  0  0  0  0  0  0  0  0  0  0  0
    4.0668    2.3479    0.0000 C   0  0  0  0  0  0  0  0  0  0  0  0
    3.3523    1.9354    0.0000 C   0  0  0  0  0  0  0  0  0  0  0  0
    3.3523    1.1104    0.0000 N   0  0  0  0  0  0  0  0  0  0  0  0
    2.6378    0.6979    0.0000 C   0  0  0  0  0  0  0  0  0  0  0  0
    2.6378   -0.1271    0.0000 N   0  0  0  0  0  0  0  0  0  0  0  0
    3.3523   -0.5396    0.0000 C   0  0  0  0  0  0  0  0  0  0  0  0
    3.3523   -1.3646    0.0000 C   0  0  0  0  0  0  0  0  0  0  0  0
    2.6378   -1.7771    0.0000 O   0  0  0  0  0  0  0  0  0  0  0  0
    1.9233   -1.3646    0.0000 C   0  0  0  0  0  0  0  0  0  0  0  0
    1.9233   -0.5396    0.0000 C   0  0  0  0  0  0  0  0  0  0  0  0
    1.9233    1.1104    0.0000 C   0  0  0  0  0  0  0  0  0  0  0  0
    1.1387    0.8555    0.0000 N   0  0  0  0  0  0  0  0  0  0  0  0
    0.6538    1.5229    0.0000 C   0  0  0  0  0  0  0  0  0  0  0  0
   -0.1712    1.5229    0.0000 C   0  0  0  0  0  0  0  0  0  0  0  0
   -0.5837    0.8085    0.0000 N   0  0  0  0  0  0  0  0  0  0  0  0
   -0.1712    0.0940    0.0000 C   0  0  0  0  0  0  0  0  0  0  0  0
   -1.4087    0.8085    0.0000 C   0  0  0  0  0  0  0  0  0  0  0  0
   -1.8212    0.0940    0.0000 N   0  0  0  0  0  0  0  0  0  0  0  0
   -2.6462    0.0940    0.0000 C   0  0  0  0  0  0  0  0  0  0  0  0
   -3.0587    0.8085    0.0000 C   0  0  0  0  0  0  0  0  0  0  0  0
   -3.8837    0.8085    0.0000 C   0  0  0  0  0  0  0  0  0  0  0  0
   -4.2962    0.0940    0.0000 O   0  0  0  0  0  0  0  0  0  0  0  0
   -4.2962    1.5229    0.0000 N   0  0  0  0  0  0  0  0  0  0  0  0
   -5.1212    1.5229    0.0000 O   0  0  0  0  0  0  0  0  0  0  0  0
   -2.6462    1.5229    0.0000 C   0  0  0  0  0  0  0  0  0  0  0  0
   -1.8212    1.5229    0.0000 N   0  0  0  0  0  0  0  0  0  0  0  0
    1.1387    2.1904    0.0000 N   0  0  0  0  0  0  0  0  0  0  0  0
    0.8838    2.9750    0.0000 C   0  0  0  0  0  0  0  0  0  0  0  0
    1.4358    3.5881    0.0000 C   0  0  0  0  0  0  0  0  0  0  0  0
    0.0768    3.1465    0.0000 C   0  0  0  0  0  0  0  0  0  0  0  0
    1.9233    1.9354    0.0000 C   0  0  0  0  0  0  0  0  0  0  0  0
    2.6378    2.3479    0.0000 N   0  0  0  0  0  0  0  0  0  0  0  0
    4.0668    3.1729    0.0000 C   0  0  0  0  0  0  0  0  0  0  0  0
    4.7812    3.5854    0.0000 C   0  0  0  0  0  0  0  0  0  0  0  0
  1  2  1  0  0  0  0
  2  3  1  0  0  0  0
  3  4  4  0  0  0  0
  4  5  4  0  0  0  0
  5  6  4  0  0  0  0
  6  7  1  0  0  0  0
  7  8  4  0  0  0  0
  8  9  4  0  0  0  0
  9 10  1  0  0  0  0
 10 11  1  0  0  0  0
 11 12  1  0  0  0  0
 12 13  1  0  0  0  0
 13 14  1  0  0  0  0
 14 15  1  0  0  0  0
 10 15  1  0  0  0  0
  9 16  4  0  0  0  0
 16 17  4  0  0  0  0
 17 18  4  0  0  0  0
 18 19  1  0  0  0  0
 19 20  1  0  0  0  0
 20 21  1  0  0  0  0
 20 22  1  0  0  0  0
 22 23  4  0  0  0  0
 23 24  4  0  0  0  0
 24 25  4  0  0  0  0
 25 26  1  0  0  0  0
 26 27  2  0  0  0  0
 26 28  1  0  0  0  0
 28 29  1  0  0  0  0
 25 30  4  0  0  0  0
 30 31  4  0  0  0  0
 22 31  4  0  0  0  0
 18 32  4  0  0  0  0
 32 33  1  0  0  0  0
 33 34  1  0  0  0  0
 33 35  1  0  0  0  0
 32 36  4  0  0  0  0
 16 36  4  0  0  0  0
 36 37  4  0  0  0  0
  7 37  4  0  0  0  0
  6 38  4  0  0  0  0
 38 39  4  0  0  0  0
  3 39  4  0  0  0  0
M  END
>  <Molecule ChEMBL ID>
CHEMBL3827477

>  <Compound Key>
18b

>  <Document ChEMBL ID>
CHEMBL3826921

>  <HDAC1>
0

$$$$

  Mrv1808 03272221002D          

 24 26  0  0  0  0            999 V2000
    1.4289    7.1786    0.0000 O   0  0  0  0  0  0  0  0  0  0  0  0
    0.7145    6.7661    0.0000 C   0  0  0  0  0  0  0  0  0  0  0  0
   -0.0000    7.1786    0.0000 N   0  0  0  0  0  0  0  0  0  0  0  0
   -0.0000    8.0036    0.0000 O   0  0  0  0  0  0  0  0  0  0  0  0
    0.7145    5.9411    0.0000 C   0  0  0  0  0  0  0  0  0  0  0  0
    1.4289    5.5286    0.0000 C   0  0  0  0  0  0  0  0  0  0  0  0
    1.4289    4.7036    0.0000 C   0  0  0  0  0  0  0  0  0  0  0  0
    0.7145    4.2911    0.0000 C   0  0  0  0  0  0  0  0  0  0  0  0
    0.7145    3.4661    0.0000 N   0  0  0  0  0  0  0  0  0  0  0  0
    1.3819    2.9812    0.0000 C   0  0  0  0  0  0  0  0  0  0  0  0
    1.1270    2.1965    0.0000 C   0  0  0  0  0  0  0  0  0  0  0  0
    0.3020    2.1965    0.0000 N   0  0  0  0  0  0  0  0  0  0  0  0
   -0.1830    1.5291    0.0000 C   0  0  0  0  0  0  0  0  0  0  0  0
   -1.0034    1.6153    0.0000 C   0  0  0  0  0  0  0  0  0  0  0  0
   -1.4884    0.9479    0.0000 C   0  0  0  0  0  0  0  0  0  0  0  0
   -2.3088    1.0341    0.0000 N   0  0  0  0  0  0  0  0  0  0  0  0
   -2.8609    0.4210    0.0000 C   0  0  0  0  0  0  0  0  0  0  0  0
   -3.6145    0.7566    0.0000 C   0  0  0  0  0  0  0  0  0  0  0  0
   -3.5283    1.5771    0.0000 C   0  0  0  0  0  0  0  0  0  0  0  0
   -2.7213    1.7486    0.0000 C   0  0  0  0  0  0  0  0  0  0  0  0
    0.0470    2.9812    0.0000 C   0  0  0  0  0  0  0  0  0  0  0  0
   -0.7376    3.2361    0.0000 O   0  0  0  0  0  0  0  0  0  0  0  0
    0.0000    4.7036    0.0000 C   0  0  0  0  0  0  0  0  0  0  0  0
   -0.0000    5.5286    0.0000 C   0  0  0  0  0  0  0  0  0  0  0  0
  1  2  2  0  0  0  0
  2  3  1  0  0  0  0
  3  4  1  0  0  0  0
  2  5  1  0  0  0  0
  5  6  4  0  0  0  0
  6  7  4  0  0  0  0
  7  8  4  0  0  0  0
  8  9  1  0  0  0  0
  9 10  1  0  0  0  0
 10 11  1  0  0  0  0
 11 12  1  0  0  0  0
 12 13  1  0  0  0  0
 13 14  1  0  0  0  0
 14 15  1  0  0  0  0
 15 16  1  0  0  0  0
 16 17  1  0  0  0  0
 17 18  1  0  0  0  0
 18 19  1  0  0  0  0
 19 20  1  0  0  0  0
 16 20  1  0  0  0  0
 12 21  1  0  0  0  0
  9 21  1  0  0  0  0
 21 22  2  0  0  0  0
  8 23  4  0  0  0  0
 23 24  4  0  0  0  0
  5 24  4  0  0  0  0
M  END
>  <Molecule ChEMBL ID>
CHEMBL3335011

>  <Compound Key>
1t

>  <Document ChEMBL ID>
CHEMBL3351615

>  <HDAC1>
0

$$$$

  Mrv1808 03272221002D          

 30 31  0  0  0  0            999 V2000
    7.0665   -2.0195    0.0000 O   0  0  0  0  0  0  0  0  0  0  0  0
    7.0665   -2.8445    0.0000 C   0  0  0  0  0  0  0  0  0  0  0  0
    6.3520   -3.2570    0.0000 C   0  0  0  0  0  0  0  0  0  0  0  0
    5.6375   -2.8445    0.0000 C   0  0  0  0  0  0  0  0  0  0  0  0
    4.9230   -3.2570    0.0000 C   0  0  0  0  0  0  0  0  0  0  0  0
    4.2086   -2.8445    0.0000 C   0  0  0  0  0  0  0  0  0  0  0  0
    4.2086   -2.0195    0.0000 O   0  0  0  0  0  0  0  0  0  0  0  0
    3.4941   -3.2570    0.0000 N   0  0  0  0  0  0  0  0  0  0  0  0
    2.7796   -2.8445    0.0000 C   0  0  0  0  0  0  0  0  0  0  0  0
    2.0652   -3.2570    0.0000 C   0  0  0  0  0  0  0  0  0  0  0  0
    1.3507   -2.8445    0.0000 N   0  0  0  0  0  0  0  0  0  0  0  0
    0.6362   -3.2570    0.0000 C   0  0  0  0  0  0  0  0  0  0  0  0
    0.5500   -4.0775    0.0000 N   0  0  0  0  0  0  0  0  0  0  0  0
   -0.2570   -4.2490    0.0000 O   0  0  0  0  0  0  0  0  0  0  0  0
   -0.6695   -3.5346    0.0000 N   0  0  0  0  0  0  0  0  0  0  0  0
   -0.1175   -2.9215    0.0000 C   0  0  0  0  0  0  0  0  0  0  0  0
   -0.2890   -2.1145    0.0000 C   0  0  0  0  0  0  0  0  0  0  0  0
   -1.0736   -1.8595    0.0000 N   0  0  0  0  0  0  0  0  0  0  0  0
   -1.2451   -1.0526    0.0000 O   0  0  0  0  0  0  0  0  0  0  0  0
    0.3241   -1.5625    0.0000 N   0  0  0  0  0  0  0  0  0  0  0  0
    0.1526   -0.7555    0.0000 C   0  0  0  0  0  0  0  0  0  0  0  0
   -0.6320   -0.5005    0.0000 C   0  0  0  0  0  0  0  0  0  0  0  0
   -0.8036    0.3064    0.0000 C   0  0  0  0  0  0  0  0  0  0  0  0
   -0.1905    0.8585    0.0000 C   0  0  0  0  0  0  0  0  0  0  0  0
   -0.3620    1.6654    0.0000 F   0  0  0  0  0  0  0  0  0  0  0  0
    0.5941    0.6035    0.0000 C   0  0  0  0  0  0  0  0  0  0  0  0
    1.2072    1.1556    0.0000 Br  0  0  0  0  0  0  0  0  0  0  0  0
    0.7657   -0.2034    0.0000 C   0  0  0  0  0  0  0  0  0  0  0  0
    7.7809   -3.2570    0.0000 N   0  0  0  0  0  0  0  0  0  0  0  0
    8.4954   -2.8445    0.0000 O   0  0  0  0  0  0  0  0  0  0  0  0
  1  2  2  0  0  0  0
  2  3  1  0  0  0  0
  3  4  1  0  0  0  0
  4  5  1  0  0  0  0
  5  6  1  0  0  0  0
  6  7  2  0  0  0  0
  6  8  1  0  0  0  0
  8  9  1  0  0  0  0
  9 10  1  0  0  0  0
 10 11  1  0  0  0  0
 11 12  1  0  0  0  0
 12 13  4  0  0  0  0
 13 14  4  0  0  0  0
 14 15  4  0  0  0  0
 15 16  4  0  0  0  0
 12 16  4  0  0  0  0
 16 17  1  0  0  0  0
 17 18  2  0  0  0  0
 18 19  1  0  0  0  0
 17 20  1  0  0  0  0
 20 21  1  0  0  0  0
 21 22  4  0  0  0  0
 22 23  4  0  0  0  0
 23 24  4  0  0  0  0
 24 25  1  0  0  0  0
 24 26  4  0  0  0  0
 26 27  1  0  0  0  0
 26 28  4  0  0  0  0
 21 28  4  0  0  0  0
  2 29  1  0  0  0  0
 29 30  1  0  0  0  0
M  END
>  <Molecule ChEMBL ID>
CHEMBL4290006

>  <Compound Key>
20

>  <Document ChEMBL ID>
CHEMBL4251732

>  <HDAC1>
0

$$$$

  Mrv1808 03272221002D          

 26 28  0  0  0  0            999 V2000
    0.4161   -5.9016    0.0000 C   0  0  0  0  0  0  0  0  0  0  0  0
   -0.1360   -5.2885    0.0000 O   0  0  0  0  0  0  0  0  0  0  0  0
    0.1190   -4.5039    0.0000 C   0  0  0  0  0  0  0  0  0  0  0  0
   -0.4331   -3.8908    0.0000 C   0  0  0  0  0  0  0  0  0  0  0  0
   -0.1781   -3.1062    0.0000 C   0  0  0  0  0  0  0  0  0  0  0  0
    0.6288   -2.9346    0.0000 C   0  0  0  0  0  0  0  0  0  0  0  0
    0.8838   -2.1500    0.0000 S   0  0  0  0  0  0  0  0  0  0  0  0
    1.6684   -2.4049    0.0000 O   0  0  0  0  0  0  0  0  0  0  0  0
    0.0992   -1.8951    0.0000 O   0  0  0  0  0  0  0  0  0  0  0  0
    1.1387   -1.3654    0.0000 N   0  0  0  0  0  0  0  0  0  0  0  0
    0.6538   -0.6979    0.0000 C   0  0  0  0  0  0  0  0  0  0  0  0
    1.1387   -0.0305    0.0000 C   0  0  0  0  0  0  0  0  0  0  0  0
    1.9233   -0.2854    0.0000 C   0  0  0  0  0  0  0  0  0  0  0  0
    2.6378    0.1271    0.0000 C   0  0  0  0  0  0  0  0  0  0  0  0
    3.3523   -0.2854    0.0000 C   0  0  0  0  0  0  0  0  0  0  0  0
    4.0668    0.1271    0.0000 C   0  0  0  0  0  0  0  0  0  0  0  0
    4.7812   -0.2854    0.0000 C   0  0  0  0  0  0  0  0  0  0  0  0
    5.4957    0.1271    0.0000 C   0  0  0  0  0  0  0  0  0  0  0  0
    5.4957    0.9521    0.0000 O   0  0  0  0  0  0  0  0  0  0  0  0
    6.2102   -0.2854    0.0000 N   0  0  0  0  0  0  0  0  0  0  0  0
    6.9246    0.1271    0.0000 O   0  0  0  0  0  0  0  0  0  0  0  0
    3.3523   -1.1104    0.0000 C   0  0  0  0  0  0  0  0  0  0  0  0
    2.6378   -1.5229    0.0000 C   0  0  0  0  0  0  0  0  0  0  0  0
    1.9233   -1.1104    0.0000 C   0  0  0  0  0  0  0  0  0  0  0  0
    1.1809   -3.5477    0.0000 C   0  0  0  0  0  0  0  0  0  0  0  0
    0.9259   -4.3323    0.0000 C   0  0  0  0  0  0  0  0  0  0  0  0
  1  2  1  0  0  0  0
  2  3  1  0  0  0  0
  3  4  4  0  0  0  0
  4  5  4  0  0  0  0
  5  6  4  0  0  0  0
  6  7  1  0  0  0  0
  7  8  2  0  0  0  0
  7  9  2  0  0  0  0
  7 10  1  0  0  0  0
 10 11  4  0  0  0  0
 11 12  4  0  0  0  0
 12 13  4  0  0  0  0
 13 14  4  0  0  0  0
 14 15  4  0  0  0  0
 15 16  1  0  0  0  0
 16 17  2  0  0  0  0
 17 18  1  0  0  0  0
 18 19  2  0  0  0  0
 18 20  1  0  0  0  0
 20 21  1  0  0  0  0
 15 22  4  0  0  0  0
 22 23  4  0  0  0  0
 23 24  4  0  0  0  0
 13 24  4  0  0  0  0
 10 24  4  0  0  0  0
  6 25  4  0  0  0  0
 25 26  4  0  0  0  0
  3 26  4  0  0  0  0
M  END
>  <Molecule ChEMBL ID>
CHEMBL2048749

>  <Compound Key>
11

>  <Document ChEMBL ID>
CHEMBL2046324

>  <HDAC1>
0

$$$$

  Mrv1808 03272221002D          

 41 46  0  0  0  0            999 V2000
    6.2102    4.4104    0.0000 C   0  0  0  0  0  0  0  0  0  0  0  0
    6.2102    3.5854    0.0000 O   0  0  0  0  0  0  0  0  0  0  0  0
    5.4957    3.1729    0.0000 C   0  0  0  0  0  0  0  0  0  0  0  0
    5.4957    2.3479    0.0000 C   0  0  0  0  0  0  0  0  0  0  0  0
    4.7812    1.9354    0.0000 C   0  0  0  0  0  0  0  0  0  0  0  0
    4.0668    2.3479    0.0000 C   0  0  0  0  0  0  0  0  0  0  0  0
    3.3523    1.9354    0.0000 C   0  0  0  0  0  0  0  0  0  0  0  0
    3.3523    1.1104    0.0000 N   0  0  0  0  0  0  0  0  0  0  0  0
    2.6378    0.6979    0.0000 C   0  0  0  0  0  0  0  0  0  0  0  0
    2.6378   -0.1271    0.0000 N   0  0  0  0  0  0  0  0  0  0  0  0
    3.3523   -0.5396    0.0000 C   0  0  0  0  0  0  0  0  0  0  0  0
    3.3523   -1.3646    0.0000 C   0  0  0  0  0  0  0  0  0  0  0  0
    2.6378   -1.7771    0.0000 O   0  0  0  0  0  0  0  0  0  0  0  0
    1.9233   -1.3646    0.0000 C   0  0  0  0  0  0  0  0  0  0  0  0
    1.9233   -0.5396    0.0000 C   0  0  0  0  0  0  0  0  0  0  0  0
    1.9233    1.1104    0.0000 C   0  0  0  0  0  0  0  0  0  0  0  0
    1.1387    0.8555    0.0000 N   0  0  0  0  0  0  0  0  0  0  0  0
    0.6538    1.5229    0.0000 C   0  0  0  0  0  0  0  0  0  0  0  0
   -0.1712    1.5229    0.0000 C   0  0  0  0  0  0  0  0  0  0  0  0
   -0.5837    0.8085    0.0000 N   0  0  0  0  0  0  0  0  0  0  0  0
   -0.1712    0.0940    0.0000 C   0  0  0  0  0  0  0  0  0  0  0  0
   -1.4087    0.8085    0.0000 C   0  0  0  0  0  0  0  0  0  0  0  0
   -1.8212    0.0940    0.0000 N   0  0  0  0  0  0  0  0  0  0  0  0
   -2.6462    0.0940    0.0000 C   0  0  0  0  0  0  0  0  0  0  0  0
   -3.0587    0.8085    0.0000 C   0  0  0  0  0  0  0  0  0  0  0  0
   -3.8837    0.8085    0.0000 C   0  0  0  0  0  0  0  0  0  0  0  0
   -4.2962    0.0940    0.0000 O   0  0  0  0  0  0  0  0  0  0  0  0
   -4.2962    1.5229    0.0000 N   0  0  0  0  0  0  0  0  0  0  0  0
   -5.1212    1.5229    0.0000 O   0  0  0  0  0  0  0  0  0  0  0  0
   -2.6462    1.5229    0.0000 C   0  0  0  0  0  0  0  0  0  0  0  0
   -1.8212    1.5229    0.0000 N   0  0  0  0  0  0  0  0  0  0  0  0
    1.1387    2.1904    0.0000 N   0  0  0  0  0  0  0  0  0  0  0  0
    0.8838    2.9750    0.0000 C   0  0  0  0  0  0  0  0  0  0  0  0
    0.0992    3.2299    0.0000 C   0  0  0  0  0  0  0  0  0  0  0  0
    0.0992    4.0549    0.0000 C   0  0  0  0  0  0  0  0  0  0  0  0
    0.8838    4.3099    0.0000 C   0  0  0  0  0  0  0  0  0  0  0  0
    1.3687    3.6424    0.0000 C   0  0  0  0  0  0  0  0  0  0  0  0
    1.9233    1.9354    0.0000 C   0  0  0  0  0  0  0  0  0  0  0  0
    2.6378    2.3479    0.0000 N   0  0  0  0  0  0  0  0  0  0  0  0
    4.0668    3.1729    0.0000 C   0  0  0  0  0  0  0  0  0  0  0  0
    4.7812    3.5854    0.0000 C   0  0  0  0  0  0  0  0  0  0  0  0
  1  2  1  0  0  0  0
  2  3  1  0  0  0  0
  3  4  4  0  0  0  0
  4  5  4  0  0  0  0
  5  6  4  0  0  0  0
  6  7  1  0  0  0  0
  7  8  4  0  0  0  0
  8  9  4  0  0  0  0
  9 10  1  0  0  0  0
 10 11  1  0  0  0  0
 11 12  1  0  0  0  0
 12 13  1  0  0  0  0
 13 14  1  0  0  0  0
 14 15  1  0  0  0  0
 10 15  1  0  0  0  0
  9 16  4  0  0  0  0
 16 17  4  0  0  0  0
 17 18  4  0  0  0  0
 18 19  1  0  0  0  0
 19 20  1  0  0  0  0
 20 21  1  0  0  0  0
 20 22  1  0  0  0  0
 22 23  4  0  0  0  0
 23 24  4  0  0  0  0
 24 25  4  0  0  0  0
 25 26  1  0  0  0  0
 26 27  2  0  0  0  0
 26 28  1  0  0  0  0
 28 29  1  0  0  0  0
 25 30  4  0  0  0  0
 30 31  4  0  0  0  0
 22 31  4  0  0  0  0
 18 32  4  0  0  0  0
 32 33  1  0  0  0  0
 33 34  1  0  0  0  0
 34 35  1  0  0  0  0
 35 36  1  0  0  0  0
 36 37  1  0  0  0  0
 33 37  1  0  0  0  0
 32 38  4  0  0  0  0
 16 38  4  0  0  0  0
 38 39  4  0  0  0  0
  7 39  4  0  0  0  0
  6 40  4  0  0  0  0
 40 41  4  0  0  0  0
  3 41  4  0  0  0  0
M  END
>  <Molecule ChEMBL ID>
CHEMBL3828135

>  <Compound Key>
18c

>  <Document ChEMBL ID>
CHEMBL3826921

>  <HDAC1>
0

$$$$

  Mrv1808 03272221002D          

 25 27  0  0  0  0            999 V2000
   -1.3222    2.4134    0.0000 O   0  0  0  0  0  0  0  0  0  0  0  0
   -2.0367    2.0009    0.0000 C   0  0  0  0  0  0  0  0  0  0  0  0
   -2.7512    2.4134    0.0000 N   0  0  0  0  0  0  0  0  0  0  0  0
   -2.7512    3.2384    0.0000 O   0  0  0  0  0  0  0  0  0  0  0  0
   -2.0367    1.1759    0.0000 C   0  0  0  0  0  0  0  0  0  0  0  0
   -1.3222    0.7634    0.0000 C   0  0  0  0  0  0  0  0  0  0  0  0
   -1.3222   -0.0616    0.0000 C   0  0  0  0  0  0  0  0  0  0  0  0
   -2.0367   -0.4741    0.0000 C   0  0  0  0  0  0  0  0  0  0  0  0
   -2.0367   -1.2991    0.0000 N   0  0  0  0  0  0  0  0  0  0  0  0
   -1.3693   -1.7840    0.0000 C   0  0  0  0  0  0  0  0  0  0  0  0
   -1.6242   -2.5687    0.0000 C   0  0  0  0  0  0  0  0  0  0  0  0
   -2.4492   -2.5687    0.0000 N   0  0  0  0  0  0  0  0  0  0  0  0
   -2.9341   -3.2361    0.0000 C   0  0  0  0  0  0  0  0  0  0  0  0
   -3.7546   -3.1499    0.0000 C   0  0  0  0  0  0  0  0  0  0  0  0
   -4.2395   -3.8173    0.0000 C   0  0  0  0  0  0  0  0  0  0  0  0
   -3.9040   -4.5710    0.0000 N   0  0  0  0  0  0  0  0  0  0  0  0
   -3.0835   -4.6572    0.0000 C   0  0  0  0  0  0  0  0  0  0  0  0
   -2.7479   -5.4109    0.0000 C   0  0  0  0  0  0  0  0  0  0  0  0
   -3.2329   -6.0783    0.0000 O   0  0  0  0  0  0  0  0  0  0  0  0
   -4.0533   -5.9921    0.0000 C   0  0  0  0  0  0  0  0  0  0  0  0
   -4.3889   -5.2384    0.0000 C   0  0  0  0  0  0  0  0  0  0  0  0
   -2.7041   -1.7840    0.0000 C   0  0  0  0  0  0  0  0  0  0  0  0
   -3.4888   -1.5291    0.0000 O   0  0  0  0  0  0  0  0  0  0  0  0
   -2.7512   -0.0616    0.0000 C   0  0  0  0  0  0  0  0  0  0  0  0
   -2.7512    0.7634    0.0000 C   0  0  0  0  0  0  0  0  0  0  0  0
  1  2  2  0  0  0  0
  2  3  1  0  0  0  0
  3  4  1  0  0  0  0
  2  5  1  0  0  0  0
  5  6  4  0  0  0  0
  6  7  4  0  0  0  0
  7  8  4  0  0  0  0
  8  9  1  0  0  0  0
  9 10  1  0  0  0  0
 10 11  1  0  0  0  0
 11 12  1  0  0  0  0
 12 13  1  0  0  0  0
 13 14  1  0  0  0  0
 14 15  1  0  0  0  0
 15 16  1  0  0  0  0
 16 17  1  0  0  0  0
 17 18  1  0  0  0  0
 18 19  1  0  0  0  0
 19 20  1  0  0  0  0
 20 21  1  0  0  0  0
 16 21  1  0  0  0  0
 12 22  1  0  0  0  0
  9 22  1  0  0  0  0
 22 23  2  0  0  0  0
  8 24  4  0  0  0  0
 24 25  4  0  0  0  0
  5 25  4  0  0  0  0
M  END
>  <Molecule ChEMBL ID>
CHEMBL3335010

>  <Compound Key>
1s

>  <Document ChEMBL ID>
CHEMBL3351615

>  <HDAC1>
0

$$$$

  Mrv1808 03272221002D          

 41 44  0  0  0  0            999 V2000
    2.1434   -2.8875    0.0000 C   0  0  0  0  0  0  0  0  0  0  0  0
    1.4289   -2.4750    0.0000 O   0  0  0  0  0  0  0  0  0  0  0  0
    1.4289   -1.6500    0.0000 C   0  0  0  0  0  0  0  0  0  0  0  0
    0.7145   -1.2375    0.0000 C   0  0  0  0  0  0  0  0  0  0  0  0
    0.7145   -0.4125    0.0000 C   0  0  0  0  0  0  0  0  0  0  0  0
    0.0000    0.0000    0.0000 C   0  0  0  0  0  0  0  0  0  0  0  0
   -0.7145   -0.4125    0.0000 O   0  0  0  0  0  0  0  0  0  0  0  0
   -1.4289    0.0000    0.0000 C   0  0  0  0  0  0  0  0  0  0  0  0
   -2.1434   -0.4125    0.0000 C   0  0  0  0  0  0  0  0  0  0  0  0
   -2.8579    0.0000    0.0000 C   0  0  0  0  0  0  0  0  0  0  0  0
   -2.8579    0.8250    0.0000 C   0  0  0  0  0  0  0  0  0  0  0  0
   -3.5724    1.2375    0.0000 N   0  0  0  0  0  0  0  0  0  0  0  0
   -3.5724    2.0625    0.0000 C   0  0  0  0  0  0  0  0  0  0  0  0
   -2.8579    2.4750    0.0000 O   0  0  0  0  0  0  0  0  0  0  0  0
   -4.2868    2.4750    0.0000 N   0  0  0  0  0  0  0  0  0  0  0  0
   -4.2868    3.3000    0.0000 C   0  0  0  0  0  0  0  0  0  0  0  0
   -5.0013    3.7125    0.0000 C   0  0  0  0  0  0  0  0  0  0  0  0
   -5.0013    4.5375    0.0000 C   0  0  0  0  0  0  0  0  0  0  0  0
   -4.2868    4.9500    0.0000 C   0  0  0  0  0  0  0  0  0  0  0  0
   -3.5724    4.5375    0.0000 C   0  0  0  0  0  0  0  0  0  0  0  0
   -3.5724    3.7125    0.0000 C   0  0  0  0  0  0  0  0  0  0  0  0
   -2.8579    3.3000    0.0000 F   0  0  0  0  0  0  0  0  0  0  0  0
   -2.1434    1.2375    0.0000 C   0  0  0  0  0  0  0  0  0  0  0  0
   -1.4289    0.8250    0.0000 C   0  0  0  0  0  0  0  0  0  0  0  0
    0.0000    0.8250    0.0000 C   0  0  0  0  0  0  0  0  0  0  0  0
    0.7145    1.2375    0.0000 C   0  0  0  0  0  0  0  0  0  0  0  0
    1.4289    0.8250    0.0000 N   0  0  0  0  0  0  0  0  0  0  0  0
    1.4289    0.0000    0.0000 C   0  0  0  0  0  0  0  0  0  0  0  0
    2.1434   -0.4125    0.0000 C   0  0  0  0  0  0  0  0  0  0  0  0
    2.1434   -1.2375    0.0000 C   0  0  0  0  0  0  0  0  0  0  0  0
    2.8579   -1.6500    0.0000 O   0  0  0  0  0  0  0  0  0  0  0  0
    3.5724   -1.2375    0.0000 C   0  0  0  0  0  0  0  0  0  0  0  0
    4.2868   -1.6500    0.0000 C   0  0  0  0  0  0  0  0  0  0  0  0
    5.0013   -1.2375    0.0000 C   0  0  0  0  0  0  0  0  0  0  0  0
    5.7158   -1.6500    0.0000 C   0  0  0  0  0  0  0  0  0  0  0  0
    6.4302   -1.2375    0.0000 C   0  0  0  0  0  0  0  0  0  0  0  0
    7.1447   -1.6500    0.0000 C   0  0  0  0  0  0  0  0  0  0  0  0
    7.8592   -1.2375    0.0000 C   0  0  0  0  0  0  0  0  0  0  0  0
    7.8592   -0.4125    0.0000 O   0  0  0  0  0  0  0  0  0  0  0  0
    8.5737   -1.6500    0.0000 N   0  0  0  0  0  0  0  0  0  0  0  0
    9.2881   -1.2375    0.0000 O   0  0  0  0  0  0  0  0  0  0  0  0
  1  2  1  0  0  0  0
  2  3  1  0  0  0  0
  3  4  4  0  0  0  0
  4  5  4  0  0  0  0
  5  6  4  0  0  0  0
  6  7  1  0  0  0  0
  7  8  1  0  0  0  0
  8  9  4  0  0  0  0
  9 10  4  0  0  0  0
 10 11  4  0  0  0  0
 11 12  1  0  0  0  0
 12 13  1  0  0  0  0
 13 14  2  0  0  0  0
 13 15  1  0  0  0  0
 15 16  1  0  0  0  0
 16 17  4  0  0  0  0
 17 18  4  0  0  0  0
 18 19  4  0  0  0  0
 19 20  4  0  0  0  0
 20 21  4  0  0  0  0
 16 21  4  0  0  0  0
 21 22  1  0  0  0  0
 11 23  4  0  0  0  0
 23 24  4  0  0  0  0
  8 24  4  0  0  0  0
  6 25  4  0  0  0  0
 25 26  4  0  0  0  0
 26 27  4  0  0  0  0
 27 28  4  0  0  0  0
  5 28  4  0  0  0  0
 28 29  4  0  0  0  0
 29 30  4  0  0  0  0
  3 30  4  0  0  0  0
 30 31  1  0  0  0  0
 31 32  1  0  0  0  0
 32 33  1  0  0  0  0
 33 34  1  0  0  0  0
 34 35  1  0  0  0  0
 35 36  1  0  0  0  0
 36 37  1  0  0  0  0
 37 38  1  0  0  0  0
 38 39  2  0  0  0  0
 38 40  1  0  0  0  0
 40 41  1  0  0  0  0
M  END
>  <Molecule ChEMBL ID>
CHEMBL4750353

>  <Compound Key>
11g

>  <Document ChEMBL ID>
CHEMBL4699570

>  <HDAC1>
0

$$$$

  Mrv1808 03272221002D          

 27 30  0  0  0  0            999 V2000
   -2.1434    4.5375    0.0000 O   0  0  0  0  0  0  0  0  0  0  0  0
   -1.4289    4.9500    0.0000 C   0  0  0  0  0  0  0  0  0  0  0  0
   -0.7145    4.5375    0.0000 C   0  0  0  0  0  0  0  0  0  0  0  0
   -0.7145    3.7125    0.0000 C   0  0  0  0  0  0  0  0  0  0  0  0
   -0.0000    3.3000    0.0000 C   0  0  0  0  0  0  0  0  0  0  0  0
    0.7145    3.7125    0.0000 C   0  0  0  0  0  0  0  0  0  0  0  0
    1.4289    3.3000    0.0000 C   0  0  0  0  0  0  0  0  0  0  0  0
    1.4289    2.4750    0.0000 C   0  0  0  0  0  0  0  0  0  0  0  0
    2.1434    2.0625    0.0000 N   0  0  0  0  0  0  0  0  0  0  0  0
    2.1434    1.2375    0.0000 C   0  0  0  0  0  0  0  0  0  0  0  0
    2.8579    0.8250    0.0000 C   0  0  0  0  0  0  0  0  0  0  0  0
    3.5724    1.2375    0.0000 C   0  0  0  0  0  0  0  0  0  0  0  0
    4.2868    0.8250    0.0000 C   0  0  0  0  0  0  0  0  0  0  0  0
    4.2868   -0.0000    0.0000 C   0  0  0  0  0  0  0  0  0  0  0  0
    3.5724   -0.4125    0.0000 C   0  0  0  0  0  0  0  0  0  0  0  0
    2.8579    0.0000    0.0000 C   0  0  0  0  0  0  0  0  0  0  0  0
    2.1434   -0.4125    0.0000 N   0  0  0  0  0  0  0  0  0  0  0  0
    1.4289    0.0000    0.0000 C   0  0  0  0  0  0  0  0  0  0  0  0
    0.7145   -0.4125    0.0000 C   0  0  0  0  0  0  0  0  0  0  0  0
    0.0000    0.0000    0.0000 C   0  0  0  0  0  0  0  0  0  0  0  0
    0.0000    0.8250    0.0000 C   0  0  0  0  0  0  0  0  0  0  0  0
    0.7145    1.2375    0.0000 C   0  0  0  0  0  0  0  0  0  0  0  0
    1.4289    0.8250    0.0000 C   0  0  0  0  0  0  0  0  0  0  0  0
    0.7145    2.0625    0.0000 C   0  0  0  0  0  0  0  0  0  0  0  0
   -0.0000    2.4750    0.0000 C   0  0  0  0  0  0  0  0  0  0  0  0
   -1.4289    5.7750    0.0000 N   0  0  0  0  0  0  0  0  0  0  0  0
   -2.1434    6.1875    0.0000 O   0  0  0  0  0  0  0  0  0  0  0  0
  1  2  2  0  0  0  0
  2  3  1  0  0  0  0
  3  4  1  0  0  0  0
  4  5  1  0  0  0  0
  5  6  4  0  0  0  0
  6  7  4  0  0  0  0
  7  8  4  0  0  0  0
  8  9  1  0  0  0  0
  9 10  1  0  0  0  0
 10 11  4  0  0  0  0
 11 12  4  0  0  0  0
 12 13  4  0  0  0  0
 13 14  4  0  0  0  0
 14 15  4  0  0  0  0
 15 16  4  0  0  0  0
 11 16  4  0  0  0  0
 16 17  4  0  0  0  0
 17 18  4  0  0  0  0
 18 19  4  0  0  0  0
 19 20  4  0  0  0  0
 20 21  4  0  0  0  0
 21 22  4  0  0  0  0
 22 23  4  0  0  0  0
 10 23  4  0  0  0  0
 18 23  4  0  0  0  0
  8 24  4  0  0  0  0
 24 25  4  0  0  0  0
  5 25  4  0  0  0  0
  2 26  1  0  0  0  0
 26 27  1  0  0  0  0
M  END
>  <Molecule ChEMBL ID>
CHEMBL4248676

>  <Compound Key>
12a

>  <Document ChEMBL ID>
CHEMBL4229424

>  <HDAC1>
0

$$$$

  Mrv1808 03272221002D          

 45 48  0  0  0  0            999 V2000
    2.1434   -2.8875    0.0000 C   0  0  0  0  0  0  0  0  0  0  0  0
    1.4289   -2.4750    0.0000 O   0  0  0  0  0  0  0  0  0  0  0  0
    1.4289   -1.6500    0.0000 C   0  0  0  0  0  0  0  0  0  0  0  0
    0.7145   -1.2375    0.0000 C   0  0  0  0  0  0  0  0  0  0  0  0
    0.7145   -0.4125    0.0000 C   0  0  0  0  0  0  0  0  0  0  0  0
    0.0000    0.0000    0.0000 C   0  0  0  0  0  0  0  0  0  0  0  0
   -0.7145   -0.4125    0.0000 O   0  0  0  0  0  0  0  0  0  0  0  0
   -1.4289    0.0000    0.0000 C   0  0  0  0  0  0  0  0  0  0  0  0
   -2.1434   -0.4125    0.0000 C   0  0  0  0  0  0  0  0  0  0  0  0
   -2.8579    0.0000    0.0000 C   0  0  0  0  0  0  0  0  0  0  0  0
   -2.8579    0.8250    0.0000 C   0  0  0  0  0  0  0  0  0  0  0  0
   -3.5724    1.2375    0.0000 N   0  0  0  0  0  0  0  0  0  0  0  0
   -3.5724    2.0625    0.0000 C   0  0  0  0  0  0  0  0  0  0  0  0
   -2.8579    2.4750    0.0000 O   0  0  0  0  0  0  0  0  0  0  0  0
   -4.2868    2.4750    0.0000 N   0  0  0  0  0  0  0  0  0  0  0  0
   -4.2868    3.3000    0.0000 C   0  0  0  0  0  0  0  0  0  0  0  0
   -5.0013    3.7125    0.0000 C   0  0  0  0  0  0  0  0  0  0  0  0
   -5.0013    4.5375    0.0000 C   0  0  0  0  0  0  0  0  0  0  0  0
   -4.2868    4.9500    0.0000 C   0  0  0  0  0  0  0  0  0  0  0  0
   -4.2868    5.7750    0.0000 C   0  0  0  0  0  0  0  0  0  0  0  0
   -4.2868    6.6000    0.0000 F   0  0  0  0  0  0  0  0  0  0  0  0
   -5.1118    5.7750    0.0000 F   0  0  0  0  0  0  0  0  0  0  0  0
   -3.4618    5.7750    0.0000 F   0  0  0  0  0  0  0  0  0  0  0  0
   -3.5724    4.5375    0.0000 C   0  0  0  0  0  0  0  0  0  0  0  0
   -3.5724    3.7125    0.0000 C   0  0  0  0  0  0  0  0  0  0  0  0
   -2.8579    3.3000    0.0000 Cl  0  0  0  0  0  0  0  0  0  0  0  0
   -2.1434    1.2375    0.0000 C   0  0  0  0  0  0  0  0  0  0  0  0
   -1.4289    0.8250    0.0000 C   0  0  0  0  0  0  0  0  0  0  0  0
    0.0000    0.8250    0.0000 C   0  0  0  0  0  0  0  0  0  0  0  0
    0.7145    1.2375    0.0000 C   0  0  0  0  0  0  0  0  0  0  0  0
    1.4289    0.8250    0.0000 N   0  0  0  0  0  0  0  0  0  0  0  0
    1.4289    0.0000    0.0000 C   0  0  0  0  0  0  0  0  0  0  0  0
    2.1434   -0.4125    0.0000 C   0  0  0  0  0  0  0  0  0  0  0  0
    2.1434   -1.2375    0.0000 C   0  0  0  0  0  0  0  0  0  0  0  0
    2.8579   -1.6500    0.0000 O   0  0  0  0  0  0  0  0  0  0  0  0
    3.5724   -1.2375    0.0000 C   0  0  0  0  0  0  0  0  0  0  0  0
    4.2868   -1.6500    0.0000 C   0  0  0  0  0  0  0  0  0  0  0  0
    5.0013   -1.2375    0.0000 C   0  0  0  0  0  0  0  0  0  0  0  0
    5.7158   -1.6500    0.0000 C   0  0  0  0  0  0  0  0  0  0  0  0
    6.4302   -1.2375    0.0000 C   0  0  0  0  0  0  0  0  0  0  0  0
    7.1447   -1.6500    0.0000 C   0  0  0  0  0  0  0  0  0  0  0  0
    7.8592   -1.2375    0.0000 C   0  0  0  0  0  0  0  0  0  0  0  0
    7.8592   -0.4125    0.0000 O   0  0  0  0  0  0  0  0  0  0  0  0
    8.5737   -1.6500    0.0000 N   0  0  0  0  0  0  0  0  0  0  0  0
    9.2881   -1.2375    0.0000 O   0  0  0  0  0  0  0  0  0  0  0  0
  1  2  1  0  0  0  0
  2  3  1  0  0  0  0
  3  4  4  0  0  0  0
  4  5  4  0  0  0  0
  5  6  4  0  0  0  0
  6  7  1  0  0  0  0
  7  8  1  0  0  0  0
  8  9  4  0  0  0  0
  9 10  4  0  0  0  0
 10 11  4  0  0  0  0
 11 12  1  0  0  0  0
 12 13  1  0  0  0  0
 13 14  2  0  0  0  0
 13 15  1  0  0  0  0
 15 16  1  0  0  0  0
 16 17  4  0  0  0  0
 17 18  4  0  0  0  0
 18 19  4  0  0  0  0
 19 20  1  0  0  0  0
 20 21  1  0  0  0  0
 20 22  1  0  0  0  0
 20 23  1  0  0  0  0
 19 24  4  0  0  0  0
 24 25  4  0  0  0  0
 16 25  4  0  0  0  0
 25 26  1  0  0  0  0
 11 27  4  0  0  0  0
 27 28  4  0  0  0  0
  8 28  4  0  0  0  0
  6 29  4  0  0  0  0
 29 30  4  0  0  0  0
 30 31  4  0  0  0  0
 31 32  4  0  0  0  0
  5 32  4  0  0  0  0
 32 33  4  0  0  0  0
 33 34  4  0  0  0  0
  3 34  4  0  0  0  0
 34 35  1  0  0  0  0
 35 36  1  0  0  0  0
 36 37  1  0  0  0  0
 37 38  1  0  0  0  0
 38 39  1  0  0  0  0
 39 40  1  0  0  0  0
 40 41  1  0  0  0  0
 41 42  1  0  0  0  0
 42 43  2  0  0  0  0
 42 44  1  0  0  0  0
 44 45  1  0  0  0  0
M  END
>  <Molecule ChEMBL ID>
CHEMBL4792339

>  <Compound Key>
11f

>  <Document ChEMBL ID>
CHEMBL4699570

>  <HDAC1>
0

$$$$

  Mrv1808 03272221002D          

 26 29  0  0  0  0            999 V2000
   -3.0559   -5.7429    0.0000 O   0  0  0  0  0  0  0  0  0  0  0  0
   -2.2354   -5.6567    0.0000 C   0  0  0  0  0  0  0  0  0  0  0  0
   -1.7505   -6.3241    0.0000 N   0  0  0  0  0  0  0  0  0  0  0  0
   -2.0861   -7.0778    0.0000 O   0  0  0  0  0  0  0  0  0  0  0  0
   -1.8999   -4.9030    0.0000 C   0  0  0  0  0  0  0  0  0  0  0  0
   -2.3848   -4.2356    0.0000 C   0  0  0  0  0  0  0  0  0  0  0  0
   -2.0492   -3.4819    0.0000 C   0  0  0  0  0  0  0  0  0  0  0  0
   -1.2288   -3.3957    0.0000 C   0  0  0  0  0  0  0  0  0  0  0  0
   -0.8932   -2.6420    0.0000 N   0  0  0  0  0  0  0  0  0  0  0  0
   -1.3057   -1.9275    0.0000 C   0  0  0  0  0  0  0  0  0  0  0  0
   -0.7537   -1.3144    0.0000 C   0  0  0  0  0  0  0  0  0  0  0  0
    0.0000   -1.6500    0.0000 N   0  0  0  0  0  0  0  0  0  0  0  0
    0.7145   -1.2375    0.0000 C   0  0  0  0  0  0  0  0  0  0  0  0
    0.7145   -0.4125    0.0000 C   0  0  0  0  0  0  0  0  0  0  0  0
    1.4289    0.0000    0.0000 N   0  0  0  0  0  0  0  0  0  0  0  0
    2.1434   -0.4125    0.0000 C   0  0  0  0  0  0  0  0  0  0  0  0
    2.8579    0.0000    0.0000 C   0  0  0  0  0  0  0  0  0  0  0  0
    3.5724   -0.4125    0.0000 C   0  0  0  0  0  0  0  0  0  0  0  0
    3.5724   -1.2375    0.0000 C   0  0  0  0  0  0  0  0  0  0  0  0
    2.8579   -1.6500    0.0000 C   0  0  0  0  0  0  0  0  0  0  0  0
    2.1434   -1.2375    0.0000 C   0  0  0  0  0  0  0  0  0  0  0  0
    1.4289   -1.6500    0.0000 C   0  0  0  0  0  0  0  0  0  0  0  0
   -0.0862   -2.4705    0.0000 C   0  0  0  0  0  0  0  0  0  0  0  0
    0.5269   -3.0225    0.0000 O   0  0  0  0  0  0  0  0  0  0  0  0
   -0.7438   -4.0631    0.0000 C   0  0  0  0  0  0  0  0  0  0  0  0
   -1.0794   -4.8168    0.0000 C   0  0  0  0  0  0  0  0  0  0  0  0
  1  2  2  0  0  0  0
  2  3  1  0  0  0  0
  3  4  1  0  0  0  0
  2  5  1  0  0  0  0
  5  6  4  0  0  0  0
  6  7  4  0  0  0  0
  7  8  4  0  0  0  0
  8  9  1  0  0  0  0
  9 10  1  0  0  0  0
 10 11  1  0  0  0  0
 11 12  1  0  0  0  0
 12 13  1  0  0  0  0
 13 14  4  0  0  0  0
 14 15  4  0  0  0  0
 15 16  4  0  0  0  0
 16 17  4  0  0  0  0
 17 18  4  0  0  0  0
 18 19  4  0  0  0  0
 19 20  4  0  0  0  0
 20 21  4  0  0  0  0
 16 21  4  0  0  0  0
 21 22  4  0  0  0  0
 13 22  4  0  0  0  0
 12 23  1  0  0  0  0
  9 23  1  0  0  0  0
 23 24  2  0  0  0  0
  8 25  4  0  0  0  0
 25 26  4  0  0  0  0
  5 26  4  0  0  0  0
M  END
>  <Molecule ChEMBL ID>
CHEMBL3334993

>  <Compound Key>
1b

>  <Document ChEMBL ID>
CHEMBL3351615

>  <HDAC1>
0

$$$$

  Mrv1808 03272221002D          

 38 42  0  0  0  0            999 V2000
    1.4358   -2.7631    0.0000 C   0  0  0  0  0  0  0  0  0  0  0  0
    0.8838   -2.1500    0.0000 C   0  0  0  0  0  0  0  0  0  0  0  0
    0.0768   -2.3215    0.0000 C   0  0  0  0  0  0  0  0  0  0  0  0
    1.1387   -1.3654    0.0000 N   0  0  0  0  0  0  0  0  0  0  0  0
    0.6538   -0.6979    0.0000 C   0  0  0  0  0  0  0  0  0  0  0  0
   -0.1712   -0.6979    0.0000 C   0  0  0  0  0  0  0  0  0  0  0  0
   -0.5837    0.0165    0.0000 N   0  0  0  0  0  0  0  0  0  0  0  0
   -0.1712    0.7310    0.0000 C   0  0  0  0  0  0  0  0  0  0  0  0
   -1.4087    0.0165    0.0000 C   0  0  0  0  0  0  0  0  0  0  0  0
   -1.8212   -0.6979    0.0000 N   0  0  0  0  0  0  0  0  0  0  0  0
   -2.6462   -0.6979    0.0000 C   0  0  0  0  0  0  0  0  0  0  0  0
   -3.0587    0.0165    0.0000 C   0  0  0  0  0  0  0  0  0  0  0  0
   -3.8837    0.0165    0.0000 C   0  0  0  0  0  0  0  0  0  0  0  0
   -4.2962   -0.6979    0.0000 O   0  0  0  0  0  0  0  0  0  0  0  0
   -4.2962    0.7310    0.0000 N   0  0  0  0  0  0  0  0  0  0  0  0
   -5.1212    0.7310    0.0000 O   0  0  0  0  0  0  0  0  0  0  0  0
   -2.6462    0.7310    0.0000 C   0  0  0  0  0  0  0  0  0  0  0  0
   -1.8212    0.7310    0.0000 N   0  0  0  0  0  0  0  0  0  0  0  0
    1.1387   -0.0305    0.0000 N   0  0  0  0  0  0  0  0  0  0  0  0
    1.9233   -0.2854    0.0000 C   0  0  0  0  0  0  0  0  0  0  0  0
    2.6378    0.1271    0.0000 C   0  0  0  0  0  0  0  0  0  0  0  0
    2.6378    0.9521    0.0000 N   0  0  0  0  0  0  0  0  0  0  0  0
    1.9233    1.3646    0.0000 C   0  0  0  0  0  0  0  0  0  0  0  0
    1.9233    2.1896    0.0000 C   0  0  0  0  0  0  0  0  0  0  0  0
    2.6378    2.6021    0.0000 O   0  0  0  0  0  0  0  0  0  0  0  0
    3.3523    2.1896    0.0000 C   0  0  0  0  0  0  0  0  0  0  0  0
    3.3523    1.3646    0.0000 C   0  0  0  0  0  0  0  0  0  0  0  0
    3.3523   -0.2854    0.0000 N   0  0  0  0  0  0  0  0  0  0  0  0
    3.3523   -1.1104    0.0000 C   0  0  0  0  0  0  0  0  0  0  0  0
    4.0668   -1.5229    0.0000 C   0  0  0  0  0  0  0  0  0  0  0  0
    4.7812   -1.1104    0.0000 C   0  0  0  0  0  0  0  0  0  0  0  0
    5.4957   -1.5229    0.0000 C   0  0  0  0  0  0  0  0  0  0  0  0
    5.4957   -2.3479    0.0000 C   0  0  0  0  0  0  0  0  0  0  0  0
    6.2102   -2.7604    0.0000 N   0  0  0  0  0  0  0  0  0  0  0  0
    4.7812   -2.7604    0.0000 C   0  0  0  0  0  0  0  0  0  0  0  0
    4.0668   -2.3479    0.0000 C   0  0  0  0  0  0  0  0  0  0  0  0
    2.6378   -1.5229    0.0000 N   0  0  0  0  0  0  0  0  0  0  0  0
    1.9233   -1.1104    0.0000 C   0  0  0  0  0  0  0  0  0  0  0  0
  1  2  1  0  0  0  0
  2  3  1  0  0  0  0
  2  4  1  0  0  0  0
  4  5  4  0  0  0  0
  5  6  1  0  0  0  0
  6  7  1  0  0  0  0
  7  8  1  0  0  0  0
  7  9  1  0  0  0  0
  9 10  4  0  0  0  0
 10 11  4  0  0  0  0
 11 12  4  0  0  0  0
 12 13  1  0  0  0  0
 13 14  2  0  0  0  0
 13 15  1  0  0  0  0
 15 16  1  0  0  0  0
 12 17  4  0  0  0  0
 17 18  4  0  0  0  0
  9 18  4  0  0  0  0
  5 19  4  0  0  0  0
 19 20  4  0  0  0  0
 20 21  4  0  0  0  0
 21 22  1  0  0  0  0
 22 23  1  0  0  0  0
 23 24  1  0  0  0  0
 24 25  1  0  0  0  0
 25 26  1  0  0  0  0
 26 27  1  0  0  0  0
 22 27  1  0  0  0  0
 21 28  4  0  0  0  0
 28 29  4  0  0  0  0
 29 30  1  0  0  0  0
 30 31  4  0  0  0  0
 31 32  4  0  0  0  0
 32 33  4  0  0  0  0
 33 34  1  0  0  0  0
 33 35  4  0  0  0  0
 35 36  4  0  0  0  0
 30 36  4  0  0  0  0
 29 37  4  0  0  0  0
 37 38  4  0  0  0  0
 20 38  4  0  0  0  0
  4 38  4  0  0  0  0
M  END
>  <Molecule ChEMBL ID>
CHEMBL3827881

>  <Compound Key>
18e

>  <Document ChEMBL ID>
CHEMBL3826921

>  <HDAC1>
0

$$$$

  Mrv1808 03272221002D          

 25 27  0  0  0  0            999 V2000
   -5.7158   -4.1250    0.0000 C   0  0  0  0  0  0  0  0  0  0  0  0
   -5.7158   -4.9500    0.0000 C   0  0  0  0  0  0  0  0  0  0  0  0
   -5.0013   -5.3625    0.0000 N   0  0  0  0  0  0  0  0  0  0  0  0
   -5.0013   -6.1875    0.0000 C   0  0  0  0  0  0  0  0  0  0  0  0
   -4.2868   -6.6000    0.0000 N   0  0  0  0  0  0  0  0  0  0  0  0
   -4.2868   -7.4250    0.0000 C   0  0  0  0  0  0  0  0  0  0  0  0
   -3.5724   -6.1875    0.0000 C   0  0  0  0  0  0  0  0  0  0  0  0
   -3.5724   -5.3625    0.0000 C   0  0  0  0  0  0  0  0  0  0  0  0
   -2.8579   -4.9500    0.0000 C   0  0  0  0  0  0  0  0  0  0  0  0
   -2.1434   -5.3625    0.0000 C   0  0  0  0  0  0  0  0  0  0  0  0
   -1.4289   -4.9500    0.0000 O   0  0  0  0  0  0  0  0  0  0  0  0
   -0.7145   -5.3625    0.0000 C   0  0  0  0  0  0  0  0  0  0  0  0
    0.0000   -4.9500    0.0000 C   0  0  0  0  0  0  0  0  0  0  0  0
    0.0000   -4.1250    0.0000 O   0  0  0  0  0  0  0  0  0  0  0  0
    0.7145   -5.3625    0.0000 N   0  0  0  0  0  0  0  0  0  0  0  0
    1.4289   -4.9500    0.0000 O   0  0  0  0  0  0  0  0  0  0  0  0
   -2.1434   -6.1875    0.0000 C   0  0  0  0  0  0  0  0  0  0  0  0
   -2.8579   -6.6000    0.0000 C   0  0  0  0  0  0  0  0  0  0  0  0
   -5.7158   -6.6000    0.0000 C   0  0  0  0  0  0  0  0  0  0  0  0
   -5.7158   -7.4250    0.0000 C   0  0  0  0  0  0  0  0  0  0  0  0
   -6.4302   -7.8375    0.0000 C   0  0  0  0  0  0  0  0  0  0  0  0
   -7.1447   -7.4250    0.0000 C   0  0  0  0  0  0  0  0  0  0  0  0
   -7.1447   -6.6000    0.0000 C   0  0  0  0  0  0  0  0  0  0  0  0
   -6.4302   -6.1875    0.0000 C   0  0  0  0  0  0  0  0  0  0  0  0
   -6.4302   -5.3625    0.0000 N   0  0  0  0  0  0  0  0  0  0  0  0
  1  2  1  0  0  0  0
  2  3  4  0  0  0  0
  3  4  4  0  0  0  0
  4  5  1  0  0  0  0
  5  6  1  0  0  0  0
  5  7  1  0  0  0  0
  7  8  4  0  0  0  0
  8  9  4  0  0  0  0
  9 10  4  0  0  0  0
 10 11  1  0  0  0  0
 11 12  1  0  0  0  0
 12 13  1  0  0  0  0
 13 14  2  0  0  0  0
 13 15  1  0  0  0  0
 15 16  1  0  0  0  0
 10 17  4  0  0  0  0
 17 18  4  0  0  0  0
  7 18  4  0  0  0  0
  4 19  4  0  0  0  0
 19 20  4  0  0  0  0
 20 21  4  0  0  0  0
 21 22  4  0  0  0  0
 22 23  4  0  0  0  0
 23 24  4  0  0  0  0
 19 24  4  0  0  0  0
 24 25  4  0  0  0  0
  2 25  4  0  0  0  0
M  END
>  <Molecule ChEMBL ID>
CHEMBL3775521

>  <Compound Key>
7a

>  <Document ChEMBL ID>
CHEMBL3774354

>  <HDAC1>
0

$$$$

  Mrv1808 03272221002D          

 28 30  0  0  0  0            999 V2000
    1.4289   -3.3000    0.0000 C   0  0  0  0  0  0  0  0  0  0  0  0
    2.1434   -3.7125    0.0000 N   0  0  0  0  0  0  0  0  0  0  0  0
    2.8579   -3.3000    0.0000 C   0  0  0  0  0  0  0  0  0  0  0  0
    2.8579   -2.4750    0.0000 C   0  0  0  0  0  0  0  0  0  0  0  0
    3.5724   -2.0625    0.0000 C   0  0  0  0  0  0  0  0  0  0  0  0
    4.2868   -2.4750    0.0000 C   0  0  0  0  0  0  0  0  0  0  0  0
    5.0013   -2.0625    0.0000 O   0  0  0  0  0  0  0  0  0  0  0  0
    5.7158   -2.4750    0.0000 C   0  0  0  0  0  0  0  0  0  0  0  0
    6.4302   -2.0625    0.0000 C   0  0  0  0  0  0  0  0  0  0  0  0
    7.1447   -2.4750    0.0000 C   0  0  0  0  0  0  0  0  0  0  0  0
    7.8592   -2.0625    0.0000 C   0  0  0  0  0  0  0  0  0  0  0  0
    8.5737   -2.4750    0.0000 C   0  0  0  0  0  0  0  0  0  0  0  0
    9.2881   -2.0625    0.0000 C   0  0  0  0  0  0  0  0  0  0  0  0
    9.2881   -1.2375    0.0000 O   0  0  0  0  0  0  0  0  0  0  0  0
   10.0026   -2.4750    0.0000 N   0  0  0  0  0  0  0  0  0  0  0  0
   10.7171   -2.0625    0.0000 O   0  0  0  0  0  0  0  0  0  0  0  0
    4.2868   -3.3000    0.0000 C   0  0  0  0  0  0  0  0  0  0  0  0
    3.5724   -3.7125    0.0000 C   0  0  0  0  0  0  0  0  0  0  0  0
    2.1434   -4.5375    0.0000 C   0  0  0  0  0  0  0  0  0  0  0  0
    2.8579   -4.9500    0.0000 N   0  0  0  0  0  0  0  0  0  0  0  0
    2.8579   -5.7750    0.0000 C   0  0  0  0  0  0  0  0  0  0  0  0
    2.1434   -6.1875    0.0000 N   0  0  0  0  0  0  0  0  0  0  0  0
    1.4289   -5.7750    0.0000 C   0  0  0  0  0  0  0  0  0  0  0  0
    0.7145   -6.1875    0.0000 C   0  0  0  0  0  0  0  0  0  0  0  0
    0.0000   -5.7750    0.0000 C   0  0  0  0  0  0  0  0  0  0  0  0
    0.0000   -4.9500    0.0000 C   0  0  0  0  0  0  0  0  0  0  0  0
    0.7145   -4.5375    0.0000 C   0  0  0  0  0  0  0  0  0  0  0  0
    1.4289   -4.9500    0.0000 C   0  0  0  0  0  0  0  0  0  0  0  0
  1  2  1  0  0  0  0
  2  3  1  0  0  0  0
  3  4  4  0  0  0  0
  4  5  4  0  0  0  0
  5  6  4  0  0  0  0
  6  7  1  0  0  0  0
  7  8  1  0  0  0  0
  8  9  1  0  0  0  0
  9 10  1  0  0  0  0
 10 11  1  0  0  0  0
 11 12  1  0  0  0  0
 12 13  1  0  0  0  0
 13 14  2  0  0  0  0
 13 15  1  0  0  0  0
 15 16  1  0  0  0  0
  6 17  4  0  0  0  0
 17 18  4  0  0  0  0
  3 18  4  0  0  0  0
  2 19  1  0  0  0  0
 19 20  4  0  0  0  0
 20 21  4  0  0  0  0
 21 22  4  0  0  0  0
 22 23  4  0  0  0  0
 23 24  4  0  0  0  0
 24 25  4  0  0  0  0
 25 26  4  0  0  0  0
 26 27  4  0  0  0  0
 27 28  4  0  0  0  0
 19 28  4  0  0  0  0
 23 28  4  0  0  0  0
M  END
>  <Molecule ChEMBL ID>
CHEMBL3774993

>  <Compound Key>
10d

>  <Document ChEMBL ID>
CHEMBL3774354

>  <HDAC1>
0

$$$$

  Mrv1808 03272221002D          

 41 44  0  0  0  0            999 V2000
   -2.1434   -6.1875    0.0000 C   0  0  0  0  0  0  0  0  0  0  0  0
   -2.1434   -5.3625    0.0000 C   0  0  0  0  0  0  0  0  0  0  0  0
   -2.8579   -4.9500    0.0000 O   0  0  0  0  0  0  0  0  0  0  0  0
   -2.8579   -4.1250    0.0000 C   0  0  0  0  0  0  0  0  0  0  0  0
   -2.1434   -3.7125    0.0000 C   0  0  0  0  0  0  0  0  0  0  0  0
   -2.1434   -2.8875    0.0000 C   0  0  0  0  0  0  0  0  0  0  0  0
   -1.4289   -2.4750    0.0000 N   0  0  0  0  0  0  0  0  0  0  0  0
   -0.7145   -2.8875    0.0000 C   0  0  0  0  0  0  0  0  0  0  0  0
   -0.7145   -3.7125    0.0000 O   0  0  0  0  0  0  0  0  0  0  0  0
    0.0000   -2.4750    0.0000 C   0  0  0  0  0  0  0  0  0  0  0  0
    0.7145   -2.8875    0.0000 C   0  0  0  0  0  0  0  0  0  0  0  0
    1.4289   -2.4750    0.0000 C   0  0  0  0  0  0  0  0  0  0  0  0
    2.1434   -2.8875    0.0000 C   0  0  0  0  0  0  0  0  0  0  0  0
    2.8579   -2.4750    0.0000 C   0  0  0  0  0  0  0  0  0  0  0  0
    3.5724   -2.8875    0.0000 C   0  0  0  0  0  0  0  0  0  0  0  0
    4.2868   -2.4750    0.0000 C   0  0  0  0  0  0  0  0  0  0  0  0
    4.2868   -1.6500    0.0000 O   0  0  0  0  0  0  0  0  0  0  0  0
    5.0013   -2.8875    0.0000 N   0  0  0  0  0  0  0  0  0  0  0  0
    5.7158   -2.4750    0.0000 C   0  0  0  0  0  0  0  0  0  0  0  0
    5.7158   -1.6500    0.0000 C   0  0  0  0  0  0  0  0  0  0  0  0
    6.4302   -1.2375    0.0000 C   0  0  0  0  0  0  0  0  0  0  0  0
    6.4302   -0.4125    0.0000 C   0  0  0  0  0  0  0  0  0  0  0  0
    5.7158    0.0000    0.0000 C   0  0  0  0  0  0  0  0  0  0  0  0
    5.7158    0.8250    0.0000 C   0  0  0  0  0  0  0  0  0  0  0  0
    6.4302    1.2375    0.0000 C   0  0  0  0  0  0  0  0  0  0  0  0
    7.1447    0.8250    0.0000 C   0  0  0  0  0  0  0  0  0  0  0  0
    7.1447    0.0000    0.0000 C   0  0  0  0  0  0  0  0  0  0  0  0
    7.1447   -1.6500    0.0000 C   0  0  0  0  0  0  0  0  0  0  0  0
    7.1447   -2.4750    0.0000 C   0  0  0  0  0  0  0  0  0  0  0  0
    6.4302   -2.8875    0.0000 C   0  0  0  0  0  0  0  0  0  0  0  0
    6.4302   -3.7125    0.0000 N   0  0  0  0  0  0  0  0  0  0  0  0
   -2.8579   -2.4750    0.0000 C   0  0  0  0  0  0  0  0  0  0  0  0
   -3.5724   -2.8875    0.0000 C   0  0  0  0  0  0  0  0  0  0  0  0
   -3.5724   -3.7125    0.0000 C   0  0  0  0  0  0  0  0  0  0  0  0
   -4.2868   -4.1250    0.0000 O   0  0  0  0  0  0  0  0  0  0  0  0
   -5.0013   -3.7125    0.0000 C   0  0  0  0  0  0  0  0  0  0  0  0
   -5.0013   -2.8875    0.0000 C   0  0  0  0  0  0  0  0  0  0  0  0
   -5.7158   -2.4750    0.0000 N   0  3  0  0  0  0  0  0  0  0  0  0
   -6.4302   -2.8875    0.0000 O   0  0  0  0  0  0  0  0  0  0  0  0
   -5.7158   -1.6500    0.0000 O   0  5  0  0  0  0  0  0  0  0  0  0
   -4.2868   -2.4750    0.0000 C   0  0  0  0  0  0  0  0  0  0  0  0
  1  2  1  0  0  0  0
  2  3  1  0  0  0  0
  3  4  1  0  0  0  0
  4  5  4  0  0  0  0
  5  6  4  0  0  0  0
  6  7  1  0  0  0  0
  7  8  1  0  0  0  0
  8  9  2  0  0  0  0
  8 10  1  0  0  0  0
 10 11  1  0  0  0  0
 11 12  1  0  0  0  0
 12 13  1  0  0  0  0
 13 14  1  0  0  0  0
 14 15  1  0  0  0  0
 15 16  1  0  0  0  0
 16 17  2  0  0  0  0
 16 18  1  0  0  0  0
 18 19  1  0  0  0  0
 19 20  4  0  0  0  0
 20 21  4  0  0  0  0
 21 22  1  0  0  0  0
 22 23  4  0  0  0  0
 23 24  4  0  0  0  0
 24 25  4  0  0  0  0
 25 26  4  0  0  0  0
 26 27  4  0  0  0  0
 22 27  4  0  0  0  0
 21 28  4  0  0  0  0
 28 29  4  0  0  0  0
 29 30  4  0  0  0  0
 19 30  4  0  0  0  0
 30 31  1  0  0  0  0
  6 32  4  0  0  0  0
 32 33  4  0  0  0  0
 33 34  4  0  0  0  0
  4 34  4  0  0  0  0
 34 35  1  0  0  0  0
 35 36  1  0  0  0  0
 36 37  1  0  0  0  0
 37 38  1  0  0  0  0
 38 39  2  0  0  0  0
 38 40  1  0  0  0  0
 37 41  2  0  0  0  0
 33 41  1  0  0  0  0
M  CHG  2  38   1  40  -1
M  END
>  <Molecule ChEMBL ID>
CHEMBL4095143

>  <Compound Key>
10c

>  <Document ChEMBL ID>
CHEMBL4052685

>  <HDAC1>
0

$$$$

  Mrv1808 03272221002D          

 40 45  0  0  0  0            999 V2000
   -0.1712    0.7310    0.0000 C   0  0  0  0  0  0  0  0  0  0  0  0
   -0.5837    0.0165    0.0000 N   0  0  0  0  0  0  0  0  0  0  0  0
   -0.1712   -0.6979    0.0000 C   0  0  0  0  0  0  0  0  0  0  0  0
    0.6538   -0.6979    0.0000 C   0  0  0  0  0  0  0  0  0  0  0  0
    1.1387   -0.0305    0.0000 N   0  0  0  0  0  0  0  0  0  0  0  0
    1.9233   -0.2854    0.0000 C   0  0  0  0  0  0  0  0  0  0  0  0
    2.6378    0.1271    0.0000 C   0  0  0  0  0  0  0  0  0  0  0  0
    2.6378    0.9521    0.0000 N   0  0  0  0  0  0  0  0  0  0  0  0
    1.9233    1.3646    0.0000 C   0  0  0  0  0  0  0  0  0  0  0  0
    1.9233    2.1896    0.0000 C   0  0  0  0  0  0  0  0  0  0  0  0
    2.6378    2.6021    0.0000 O   0  0  0  0  0  0  0  0  0  0  0  0
    3.3523    2.1896    0.0000 C   0  0  0  0  0  0  0  0  0  0  0  0
    3.3523    1.3646    0.0000 C   0  0  0  0  0  0  0  0  0  0  0  0
    3.3523   -0.2854    0.0000 N   0  0  0  0  0  0  0  0  0  0  0  0
    3.3523   -1.1104    0.0000 C   0  0  0  0  0  0  0  0  0  0  0  0
    4.0668   -1.5229    0.0000 C   0  0  0  0  0  0  0  0  0  0  0  0
    4.7812   -1.1104    0.0000 C   0  0  0  0  0  0  0  0  0  0  0  0
    5.4957   -1.5229    0.0000 C   0  0  0  0  0  0  0  0  0  0  0  0
    5.4957   -2.3479    0.0000 C   0  0  0  0  0  0  0  0  0  0  0  0
    6.2102   -2.7604    0.0000 N   0  0  0  0  0  0  0  0  0  0  0  0
    4.7812   -2.7604    0.0000 C   0  0  0  0  0  0  0  0  0  0  0  0
    4.0668   -2.3479    0.0000 C   0  0  0  0  0  0  0  0  0  0  0  0
    2.6378   -1.5229    0.0000 N   0  0  0  0  0  0  0  0  0  0  0  0
    1.9233   -1.1104    0.0000 C   0  0  0  0  0  0  0  0  0  0  0  0
    1.1387   -1.3654    0.0000 N   0  0  0  0  0  0  0  0  0  0  0  0
    0.8838   -2.1500    0.0000 C   0  0  0  0  0  0  0  0  0  0  0  0
    1.3687   -2.8174    0.0000 C   0  0  0  0  0  0  0  0  0  0  0  0
    0.8838   -3.4849    0.0000 C   0  0  0  0  0  0  0  0  0  0  0  0
    0.0992   -3.2299    0.0000 C   0  0  0  0  0  0  0  0  0  0  0  0
    0.0992   -2.4049    0.0000 C   0  0  0  0  0  0  0  0  0  0  0  0
   -1.4087    0.0165    0.0000 C   0  0  0  0  0  0  0  0  0  0  0  0
   -1.8212   -0.6979    0.0000 N   0  0  0  0  0  0  0  0  0  0  0  0
   -2.6462   -0.6979    0.0000 C   0  0  0  0  0  0  0  0  0  0  0  0
   -3.0587    0.0165    0.0000 C   0  0  0  0  0  0  0  0  0  0  0  0
   -3.8837    0.0165    0.0000 C   0  0  0  0  0  0  0  0  0  0  0  0
   -4.2962   -0.6979    0.0000 O   0  0  0  0  0  0  0  0  0  0  0  0
   -4.2962    0.7310    0.0000 N   0  0  0  0  0  0  0  0  0  0  0  0
   -5.1212    0.7310    0.0000 O   0  0  0  0  0  0  0  0  0  0  0  0
   -2.6462    0.7310    0.0000 C   0  0  0  0  0  0  0  0  0  0  0  0
   -1.8212    0.7310    0.0000 N   0  0  0  0  0  0  0  0  0  0  0  0
  1  2  1  0  0  0  0
  2  3  1  0  0  0  0
  3  4  1  0  0  0  0
  4  5  4  0  0  0  0
  5  6  4  0  0  0  0
  6  7  4  0  0  0  0
  7  8  1  0  0  0  0
  8  9  1  0  0  0  0
  9 10  1  0  0  0  0
 10 11  1  0  0  0  0
 11 12  1  0  0  0  0
 12 13  1  0  0  0  0
  8 13  1  0  0  0  0
  7 14  4  0  0  0  0
 14 15  4  0  0  0  0
 15 16  1  0  0  0  0
 16 17  4  0  0  0  0
 17 18  4  0  0  0  0
 18 19  4  0  0  0  0
 19 20  1  0  0  0  0
 19 21  4  0  0  0  0
 21 22  4  0  0  0  0
 16 22  4  0  0  0  0
 15 23  4  0  0  0  0
 23 24  4  0  0  0  0
  6 24  4  0  0  0  0
 24 25  4  0  0  0  0
  4 25  4  0  0  0  0
 25 26  1  0  0  0  0
 26 27  1  0  0  0  0
 27 28  1  0  0  0  0
 28 29  1  0  0  0  0
 29 30  1  0  0  0  0
 26 30  1  0  0  0  0
  2 31  1  0  0  0  0
 31 32  4  0  0  0  0
 32 33  4  0  0  0  0
 33 34  4  0  0  0  0
 34 35  1  0  0  0  0
 35 36  2  0  0  0  0
 35 37  1  0  0  0  0
 37 38  1  0  0  0  0
 34 39  4  0  0  0  0
 39 40  4  0  0  0  0
 31 40  4  0  0  0  0
M  END
>  <Molecule ChEMBL ID>
CHEMBL3828218

>  <Compound Key>
18f

>  <Document ChEMBL ID>
CHEMBL3826921

>  <HDAC1>
0

$$$$

  Mrv1808 03272221002D          

 26 28  0  0  0  0            999 V2000
    2.8579   -4.9500    0.0000 C   0  0  0  0  0  0  0  0  0  0  0  0
    2.1434   -4.5375    0.0000 C   0  0  0  0  0  0  0  0  0  0  0  0
    1.4289   -4.9500    0.0000 N   0  0  0  0  0  0  0  0  0  0  0  0
    0.7145   -4.5375    0.0000 C   0  0  0  0  0  0  0  0  0  0  0  0
    0.7145   -3.7125    0.0000 C   0  0  0  0  0  0  0  0  0  0  0  0
    1.4289   -3.3000    0.0000 C   0  0  0  0  0  0  0  0  0  0  0  0
    1.4289   -2.4750    0.0000 N   0  0  0  0  0  0  0  0  0  0  0  0
    0.7145   -2.0625    0.0000 C   0  0  0  0  0  0  0  0  0  0  0  0
    2.1434   -2.0625    0.0000 C   0  0  0  0  0  0  0  0  0  0  0  0
    2.1434   -1.2375    0.0000 C   0  0  0  0  0  0  0  0  0  0  0  0
    2.8579   -0.8250    0.0000 C   0  0  0  0  0  0  0  0  0  0  0  0
    3.5724   -1.2375    0.0000 C   0  0  0  0  0  0  0  0  0  0  0  0
    4.2868   -0.8250    0.0000 O   0  0  0  0  0  0  0  0  0  0  0  0
    5.0013   -1.2375    0.0000 C   0  0  0  0  0  0  0  0  0  0  0  0
    5.7158   -0.8250    0.0000 C   0  0  0  0  0  0  0  0  0  0  0  0
    6.4302   -1.2375    0.0000 C   0  0  0  0  0  0  0  0  0  0  0  0
    7.1447   -0.8250    0.0000 C   0  0  0  0  0  0  0  0  0  0  0  0
    7.1447    0.0000    0.0000 O   0  0  0  0  0  0  0  0  0  0  0  0
    7.8592   -1.2375    0.0000 N   0  0  0  0  0  0  0  0  0  0  0  0
    8.5737   -0.8250    0.0000 O   0  0  0  0  0  0  0  0  0  0  0  0
    3.5724   -2.0625    0.0000 C   0  0  0  0  0  0  0  0  0  0  0  0
    2.8579   -2.4750    0.0000 C   0  0  0  0  0  0  0  0  0  0  0  0
    2.1434   -3.7125    0.0000 N   0  0  0  0  0  0  0  0  0  0  0  0
   -0.0702   -3.4576    0.0000 C   0  0  0  0  0  0  0  0  0  0  0  0
   -0.5551   -4.1250    0.0000 C   0  0  0  0  0  0  0  0  0  0  0  0
   -0.0702   -4.7924    0.0000 C   0  0  0  0  0  0  0  0  0  0  0  0
  1  2  1  0  0  0  0
  2  3  4  0  0  0  0
  3  4  4  0  0  0  0
  4  5  4  0  0  0  0
  5  6  4  0  0  0  0
  6  7  1  0  0  0  0
  7  8  1  0  0  0  0
  7  9  1  0  0  0  0
  9 10  4  0  0  0  0
 10 11  4  0  0  0  0
 11 12  4  0  0  0  0
 12 13  1  0  0  0  0
 13 14  1  0  0  0  0
 14 15  1  0  0  0  0
 15 16  1  0  0  0  0
 16 17  1  0  0  0  0
 17 18  2  0  0  0  0
 17 19  1  0  0  0  0
 19 20  1  0  0  0  0
 12 21  4  0  0  0  0
 21 22  4  0  0  0  0
  9 22  4  0  0  0  0
  6 23  4  0  0  0  0
  2 23  4  0  0  0  0
  5 24  1  0  0  0  0
 24 25  1  0  0  0  0
 25 26  1  0  0  0  0
  4 26  1  0  0  0  0
M  END
>  <Molecule ChEMBL ID>
CHEMBL3775269

>  <Compound Key>
16b

>  <Document ChEMBL ID>
CHEMBL3774354

>  <HDAC1>
0

$$$$

  Mrv1808 03272221002D          

 27 29  0  0  0  0            999 V2000
    2.1434   -2.8875    0.0000 C   0  0  0  0  0  0  0  0  0  0  0  0
    2.8579   -3.3000    0.0000 N   0  0  0  0  0  0  0  0  0  0  0  0
    3.5724   -2.8875    0.0000 C   0  0  0  0  0  0  0  0  0  0  0  0
    3.5724   -2.0625    0.0000 C   0  0  0  0  0  0  0  0  0  0  0  0
    4.2868   -1.6500    0.0000 C   0  0  0  0  0  0  0  0  0  0  0  0
    5.0013   -2.0625    0.0000 C   0  0  0  0  0  0  0  0  0  0  0  0
    5.7158   -1.6500    0.0000 O   0  0  0  0  0  0  0  0  0  0  0  0
    6.4302   -2.0625    0.0000 C   0  0  0  0  0  0  0  0  0  0  0  0
    7.1447   -1.6500    0.0000 C   0  0  0  0  0  0  0  0  0  0  0  0
    7.8592   -2.0625    0.0000 C   0  0  0  0  0  0  0  0  0  0  0  0
    8.5737   -1.6500    0.0000 C   0  0  0  0  0  0  0  0  0  0  0  0
    9.2881   -2.0625    0.0000 C   0  0  0  0  0  0  0  0  0  0  0  0
    9.2881   -2.8875    0.0000 O   0  0  0  0  0  0  0  0  0  0  0  0
   10.0026   -1.6500    0.0000 N   0  0  0  0  0  0  0  0  0  0  0  0
   10.7171   -2.0625    0.0000 O   0  0  0  0  0  0  0  0  0  0  0  0
    5.0013   -2.8875    0.0000 C   0  0  0  0  0  0  0  0  0  0  0  0
    4.2868   -3.3000    0.0000 C   0  0  0  0  0  0  0  0  0  0  0  0
    2.8579   -4.1250    0.0000 C   0  0  0  0  0  0  0  0  0  0  0  0
    3.5724   -4.5375    0.0000 N   0  0  0  0  0  0  0  0  0  0  0  0
    3.5724   -5.3625    0.0000 C   0  0  0  0  0  0  0  0  0  0  0  0
    2.8579   -5.7750    0.0000 N   0  0  0  0  0  0  0  0  0  0  0  0
    2.1434   -5.3625    0.0000 C   0  0  0  0  0  0  0  0  0  0  0  0
    1.4289   -5.7750    0.0000 C   0  0  0  0  0  0  0  0  0  0  0  0
    0.7145   -5.3625    0.0000 C   0  0  0  0  0  0  0  0  0  0  0  0
    0.7145   -4.5375    0.0000 C   0  0  0  0  0  0  0  0  0  0  0  0
    1.4289   -4.1250    0.0000 C   0  0  0  0  0  0  0  0  0  0  0  0
    2.1434   -4.5375    0.0000 C   0  0  0  0  0  0  0  0  0  0  0  0
  1  2  1  0  0  0  0
  2  3  1  0  0  0  0
  3  4  4  0  0  0  0
  4  5  4  0  0  0  0
  5  6  4  0  0  0  0
  6  7  1  0  0  0  0
  7  8  1  0  0  0  0
  8  9  1  0  0  0  0
  9 10  1  0  0  0  0
 10 11  1  0  0  0  0
 11 12  1  0  0  0  0
 12 13  2  0  0  0  0
 12 14  1  0  0  0  0
 14 15  1  0  0  0  0
  6 16  4  0  0  0  0
 16 17  4  0  0  0  0
  3 17  4  0  0  0  0
  2 18  1  0  0  0  0
 18 19  4  0  0  0  0
 19 20  4  0  0  0  0
 20 21  4  0  0  0  0
 21 22  4  0  0  0  0
 22 23  4  0  0  0  0
 23 24  4  0  0  0  0
 24 25  4  0  0  0  0
 25 26  4  0  0  0  0
 26 27  4  0  0  0  0
 18 27  4  0  0  0  0
 22 27  4  0  0  0  0
M  END
>  <Molecule ChEMBL ID>
CHEMBL3774858

>  <Compound Key>
10c

>  <Document ChEMBL ID>
CHEMBL3774354

>  <HDAC1>
0

$$$$

  Mrv1808 03272221002D          

 28 30  0  0  0  0            999 V2000
   -4.2868   -4.1250    0.0000 C   0  0  0  0  0  0  0  0  0  0  0  0
   -4.2868   -4.9500    0.0000 C   0  0  0  0  0  0  0  0  0  0  0  0
   -3.5724   -5.3625    0.0000 N   0  0  0  0  0  0  0  0  0  0  0  0
   -3.5724   -6.1875    0.0000 C   0  0  0  0  0  0  0  0  0  0  0  0
   -2.8579   -6.6000    0.0000 N   0  0  0  0  0  0  0  0  0  0  0  0
   -2.8579   -7.4250    0.0000 C   0  0  0  0  0  0  0  0  0  0  0  0
   -2.1434   -6.1875    0.0000 C   0  0  0  0  0  0  0  0  0  0  0  0
   -2.1434   -5.3625    0.0000 C   0  0  0  0  0  0  0  0  0  0  0  0
   -1.4289   -4.9500    0.0000 C   0  0  0  0  0  0  0  0  0  0  0  0
   -0.7145   -5.3625    0.0000 C   0  0  0  0  0  0  0  0  0  0  0  0
    0.0000   -4.9500    0.0000 O   0  0  0  0  0  0  0  0  0  0  0  0
    0.7145   -5.3625    0.0000 C   0  0  0  0  0  0  0  0  0  0  0  0
    1.4289   -4.9500    0.0000 C   0  0  0  0  0  0  0  0  0  0  0  0
    2.1434   -5.3625    0.0000 C   0  0  0  0  0  0  0  0  0  0  0  0
    2.8579   -4.9500    0.0000 C   0  0  0  0  0  0  0  0  0  0  0  0
    3.5724   -5.3625    0.0000 C   0  0  0  0  0  0  0  0  0  0  0  0
    3.5724   -6.1875    0.0000 O   0  0  0  0  0  0  0  0  0  0  0  0
    4.2868   -4.9500    0.0000 N   0  0  0  0  0  0  0  0  0  0  0  0
    5.0013   -5.3625    0.0000 O   0  0  0  0  0  0  0  0  0  0  0  0
   -0.7145   -6.1875    0.0000 C   0  0  0  0  0  0  0  0  0  0  0  0
   -1.4289   -6.6000    0.0000 C   0  0  0  0  0  0  0  0  0  0  0  0
   -4.2868   -6.6000    0.0000 C   0  0  0  0  0  0  0  0  0  0  0  0
   -4.2868   -7.4250    0.0000 C   0  0  0  0  0  0  0  0  0  0  0  0
   -5.0013   -7.8375    0.0000 C   0  0  0  0  0  0  0  0  0  0  0  0
   -5.7158   -7.4250    0.0000 C   0  0  0  0  0  0  0  0  0  0  0  0
   -5.7158   -6.6000    0.0000 C   0  0  0  0  0  0  0  0  0  0  0  0
   -5.0013   -6.1875    0.0000 C   0  0  0  0  0  0  0  0  0  0  0  0
   -5.0013   -5.3625    0.0000 N   0  0  0  0  0  0  0  0  0  0  0  0
  1  2  1  0  0  0  0
  2  3  4  0  0  0  0
  3  4  4  0  0  0  0
  4  5  1  0  0  0  0
  5  6  1  0  0  0  0
  5  7  1  0  0  0  0
  7  8  4  0  0  0  0
  8  9  4  0  0  0  0
  9 10  4  0  0  0  0
 10 11  1  0  0  0  0
 11 12  1  0  0  0  0
 12 13  1  0  0  0  0
 13 14  1  0  0  0  0
 14 15  1  0  0  0  0
 15 16  1  0  0  0  0
 16 17  2  0  0  0  0
 16 18  1  0  0  0  0
 18 19  1  0  0  0  0
 10 20  4  0  0  0  0
 20 21  4  0  0  0  0
  7 21  4  0  0  0  0
  4 22  4  0  0  0  0
 22 23  4  0  0  0  0
 23 24  4  0  0  0  0
 24 25  4  0  0  0  0
 25 26  4  0  0  0  0
 26 27  4  0  0  0  0
 22 27  4  0  0  0  0
 27 28  4  0  0  0  0
  2 28  4  0  0  0  0
M  END
>  <Molecule ChEMBL ID>
CHEMBL3775817

>  <Compound Key>
7c

>  <Document ChEMBL ID>
CHEMBL3774354

>  <HDAC1>
0

$$$$

  Mrv1808 03272221002D          

 27 29  0  0  0  0            999 V2000
    0.7145   -1.2375    0.0000 C   0  0  0  0  0  0  0  0  0  0  0  0
    0.7145   -0.4125    0.0000 C   0  0  0  0  0  0  0  0  0  0  0  0
    0.0000    0.0000    0.0000 N   0  0  0  0  0  0  0  0  0  0  0  0
    0.0000    0.8250    0.0000 C   0  0  0  0  0  0  0  0  0  0  0  0
    0.7145    1.2375    0.0000 C   0  0  0  0  0  0  0  0  0  0  0  0
    1.4289    0.8250    0.0000 C   0  0  0  0  0  0  0  0  0  0  0  0
    2.1434    1.2375    0.0000 N   0  0  0  0  0  0  0  0  0  0  0  0
    2.1434    2.0625    0.0000 C   0  0  0  0  0  0  0  0  0  0  0  0
    2.8579    0.8250    0.0000 C   0  0  0  0  0  0  0  0  0  0  0  0
    3.5724    1.2375    0.0000 C   0  0  0  0  0  0  0  0  0  0  0  0
    4.2868    0.8250    0.0000 C   0  0  0  0  0  0  0  0  0  0  0  0
    4.2868    0.0000    0.0000 C   0  0  0  0  0  0  0  0  0  0  0  0
    5.0013   -0.4125    0.0000 O   0  0  0  0  0  0  0  0  0  0  0  0
    5.7158    0.0000    0.0000 C   0  0  0  0  0  0  0  0  0  0  0  0
    6.4302   -0.4125    0.0000 C   0  0  0  0  0  0  0  0  0  0  0  0
    7.1447    0.0000    0.0000 C   0  0  0  0  0  0  0  0  0  0  0  0
    7.8592   -0.4125    0.0000 C   0  0  0  0  0  0  0  0  0  0  0  0
    8.5737    0.0000    0.0000 C   0  0  0  0  0  0  0  0  0  0  0  0
    8.5737    0.8250    0.0000 O   0  0  0  0  0  0  0  0  0  0  0  0
    9.2881   -0.4125    0.0000 N   0  0  0  0  0  0  0  0  0  0  0  0
   10.0026    0.0000    0.0000 O   0  0  0  0  0  0  0  0  0  0  0  0
    3.5724   -0.4125    0.0000 C   0  0  0  0  0  0  0  0  0  0  0  0
    2.8579    0.0000    0.0000 C   0  0  0  0  0  0  0  0  0  0  0  0
    1.4289    0.0000    0.0000 N   0  0  0  0  0  0  0  0  0  0  0  0
    0.5429    2.0445    0.0000 C   0  0  0  0  0  0  0  0  0  0  0  0
   -0.2775    2.1307    0.0000 C   0  0  0  0  0  0  0  0  0  0  0  0
   -0.6131    1.3770    0.0000 C   0  0  0  0  0  0  0  0  0  0  0  0
  1  2  1  0  0  0  0
  2  3  4  0  0  0  0
  3  4  4  0  0  0  0
  4  5  4  0  0  0  0
  5  6  4  0  0  0  0
  6  7  1  0  0  0  0
  7  8  1  0  0  0  0
  7  9  1  0  0  0  0
  9 10  4  0  0  0  0
 10 11  4  0  0  0  0
 11 12  4  0  0  0  0
 12 13  1  0  0  0  0
 13 14  1  0  0  0  0
 14 15  1  0  0  0  0
 15 16  1  0  0  0  0
 16 17  1  0  0  0  0
 17 18  1  0  0  0  0
 18 19  2  0  0  0  0
 18 20  1  0  0  0  0
 20 21  1  0  0  0  0
 12 22  4  0  0  0  0
 22 23  4  0  0  0  0
  9 23  4  0  0  0  0
  6 24  4  0  0  0  0
  2 24  4  0  0  0  0
  5 25  1  0  0  0  0
 25 26  1  0  0  0  0
 26 27  1  0  0  0  0
  4 27  1  0  0  0  0
M  END
>  <Molecule ChEMBL ID>
CHEMBL3774691

>  <Compound Key>
16c

>  <Document ChEMBL ID>
CHEMBL3774354

>  <HDAC1>
0

$$$$

  Mrv1808 03272221002D          

 38 42  0  0  0  0            999 V2000
   -2.1710    6.9825    0.0000 C   0  0  0  0  0  0  0  0  0  0  0  0
   -1.3505    6.8963    0.0000 O   0  0  0  0  0  0  0  0  0  0  0  0
   -0.8656    7.5637    0.0000 C   0  0  0  0  0  0  0  0  0  0  0  0
   -1.2012    8.3174    0.0000 C   0  0  0  0  0  0  0  0  0  0  0  0
   -0.7162    8.9848    0.0000 C   0  0  0  0  0  0  0  0  0  0  0  0
    0.1042    8.8986    0.0000 C   0  0  0  0  0  0  0  0  0  0  0  0
    0.5892    9.5660    0.0000 N   0  0  0  0  0  0  0  0  0  0  0  0
    1.4096    9.4798    0.0000 C   0  0  0  0  0  0  0  0  0  0  0  0
    1.8946   10.1472    0.0000 C   0  0  0  0  0  0  0  0  0  0  0  0
    2.7150   10.0610    0.0000 C   0  0  0  0  0  0  0  0  0  0  0  0
    3.2000   10.7284    0.0000 Cl  0  0  0  0  0  0  0  0  0  0  0  0
    3.0506    9.3073    0.0000 C   0  0  0  0  0  0  0  0  0  0  0  0
    2.5657    8.6399    0.0000 C   0  0  0  0  0  0  0  0  0  0  0  0
    1.7452    8.7261    0.0000 C   0  0  0  0  0  0  0  0  0  0  0  0
    1.2603    8.0587    0.0000 C   0  0  0  0  0  0  0  0  0  0  0  0
    1.5958    7.3050    0.0000 N   0  0  0  0  0  0  0  0  0  0  0  0
    2.4163    7.2188    0.0000 C   0  0  0  0  0  0  0  0  0  0  0  0
    2.9012    7.8862    0.0000 C   0  0  0  0  0  0  0  0  0  0  0  0
    3.7217    7.8000    0.0000 C   0  0  0  0  0  0  0  0  0  0  0  0
    4.0573    7.0463    0.0000 C   0  0  0  0  0  0  0  0  0  0  0  0
    3.5724    6.3789    0.0000 C   0  0  0  0  0  0  0  0  0  0  0  0
    3.9079    5.6252    0.0000 C   0  0  0  0  0  0  0  0  0  0  0  0
    4.7149    5.4537    0.0000 C   0  0  0  0  0  0  0  0  0  0  0  0
    4.8011    4.6332    0.0000 N   0  0  0  0  0  0  0  0  0  0  0  0
    5.5156    4.2207    0.0000 C   0  0  0  0  0  0  0  0  0  0  0  0
    6.2301    4.6332    0.0000 C   0  0  0  0  0  0  0  0  0  0  0  0
    6.9445    4.2207    0.0000 C   0  0  0  0  0  0  0  0  0  0  0  0
    7.6590    4.6332    0.0000 C   0  0  0  0  0  0  0  0  0  0  0  0
    8.3735    4.2207    0.0000 C   0  0  0  0  0  0  0  0  0  0  0  0
    9.0879    4.6332    0.0000 C   0  0  0  0  0  0  0  0  0  0  0  0
    9.0879    5.4582    0.0000 O   0  0  0  0  0  0  0  0  0  0  0  0
    9.8024    4.2207    0.0000 N   0  0  0  0  0  0  0  0  0  0  0  0
   10.5169    4.6332    0.0000 O   0  0  0  0  0  0  0  0  0  0  0  0
    4.0474    4.2976    0.0000 N   0  0  0  0  0  0  0  0  0  0  0  0
    3.4954    4.9107    0.0000 N   0  0  0  0  0  0  0  0  0  0  0  0
    2.7519    6.4651    0.0000 C   0  0  0  0  0  0  0  0  0  0  0  0
    0.4398    8.1449    0.0000 C   0  0  0  0  0  0  0  0  0  0  0  0
   -0.0451    7.4775    0.0000 C   0  0  0  0  0  0  0  0  0  0  0  0
  1  2  1  0  0  0  0
  2  3  1  0  0  0  0
  3  4  4  0  0  0  0
  4  5  4  0  0  0  0
  5  6  4  0  0  0  0
  6  7  4  0  0  0  0
  7  8  4  0  0  0  0
  8  9  4  0  0  0  0
  9 10  4  0  0  0  0
 10 11  1  0  0  0  0
 10 12  4  0  0  0  0
 12 13  4  0  0  0  0
 13 14  4  0  0  0  0
  8 14  4  0  0  0  0
 14 15  4  0  0  0  0
 15 16  1  0  0  0  0
 16 17  1  0  0  0  0
 17 18  4  0  0  0  0
 18 19  4  0  0  0  0
 19 20  4  0  0  0  0
 20 21  4  0  0  0  0
 21 22  1  0  0  0  0
 22 23  4  0  0  0  0
 23 24  4  0  0  0  0
 24 25  1  0  0  0  0
 25 26  1  0  0  0  0
 26 27  1  0  0  0  0
 27 28  1  0  0  0  0
 28 29  1  0  0  0  0
 29 30  1  0  0  0  0
 30 31  2  0  0  0  0
 30 32  1  0  0  0  0
 32 33  1  0  0  0  0
 24 34  4  0  0  0  0
 34 35  4  0  0  0  0
 22 35  4  0  0  0  0
 21 36  4  0  0  0  0
 17 36  4  0  0  0  0
 15 37  4  0  0  0  0
  6 37  4  0  0  0  0
 37 38  4  0  0  0  0
  3 38  4  0  0  0  0
M  END
>  <Molecule ChEMBL ID>
CHEMBL4244419

>  <Compound Key>
8f

>  <Document ChEMBL ID>
CHEMBL4229424

>  <HDAC1>
0

$$$$

  Mrv1808 03272221002D          

 35 37  0  0  0  0            999 V2000
   -2.1434   -6.1875    0.0000 C   0  0  0  0  0  0  0  0  0  0  0  0
   -2.1434   -5.3625    0.0000 C   0  0  0  0  0  0  0  0  0  0  0  0
   -2.8579   -4.9500    0.0000 O   0  0  0  0  0  0  0  0  0  0  0  0
   -2.8579   -4.1250    0.0000 C   0  0  0  0  0  0  0  0  0  0  0  0
   -2.1434   -3.7125    0.0000 C   0  0  0  0  0  0  0  0  0  0  0  0
   -2.1434   -2.8875    0.0000 C   0  0  0  0  0  0  0  0  0  0  0  0
   -1.4289   -2.4750    0.0000 N   0  0  0  0  0  0  0  0  0  0  0  0
   -0.7145   -2.8875    0.0000 C   0  0  0  0  0  0  0  0  0  0  0  0
   -0.7145   -3.7125    0.0000 O   0  0  0  0  0  0  0  0  0  0  0  0
    0.0000   -2.4750    0.0000 C   0  0  0  0  0  0  0  0  0  0  0  0
    0.7145   -2.8875    0.0000 C   0  0  0  0  0  0  0  0  0  0  0  0
    1.4289   -2.4750    0.0000 C   0  0  0  0  0  0  0  0  0  0  0  0
    2.1434   -2.8875    0.0000 C   0  0  0  0  0  0  0  0  0  0  0  0
    2.8579   -2.4750    0.0000 C   0  0  0  0  0  0  0  0  0  0  0  0
    3.5724   -2.8875    0.0000 C   0  0  0  0  0  0  0  0  0  0  0  0
    4.2868   -2.4750    0.0000 C   0  0  0  0  0  0  0  0  0  0  0  0
    4.2868   -1.6500    0.0000 O   0  0  0  0  0  0  0  0  0  0  0  0
    5.0013   -2.8875    0.0000 N   0  0  0  0  0  0  0  0  0  0  0  0
    5.7158   -2.4750    0.0000 C   0  0  0  0  0  0  0  0  0  0  0  0
    5.7158   -1.6500    0.0000 C   0  0  0  0  0  0  0  0  0  0  0  0
    6.4302   -1.2375    0.0000 C   0  0  0  0  0  0  0  0  0  0  0  0
    7.1447   -1.6500    0.0000 C   0  0  0  0  0  0  0  0  0  0  0  0
    7.1447   -2.4750    0.0000 C   0  0  0  0  0  0  0  0  0  0  0  0
    6.4302   -2.8875    0.0000 C   0  0  0  0  0  0  0  0  0  0  0  0
    6.4302   -3.7125    0.0000 N   0  0  0  0  0  0  0  0  0  0  0  0
   -2.8579   -2.4750    0.0000 C   0  0  0  0  0  0  0  0  0  0  0  0
   -3.5724   -2.8875    0.0000 C   0  0  0  0  0  0  0  0  0  0  0  0
   -3.5724   -3.7125    0.0000 C   0  0  0  0  0  0  0  0  0  0  0  0
   -4.2868   -4.1250    0.0000 O   0  0  0  0  0  0  0  0  0  0  0  0
   -5.0013   -3.7125    0.0000 C   0  0  0  0  0  0  0  0  0  0  0  0
   -5.0013   -2.8875    0.0000 C   0  0  0  0  0  0  0  0  0  0  0  0
   -5.7158   -2.4750    0.0000 N   0  3  0  0  0  0  0  0  0  0  0  0
   -6.4302   -2.8875    0.0000 O   0  0  0  0  0  0  0  0  0  0  0  0
   -5.7158   -1.6500    0.0000 O   0  5  0  0  0  0  0  0  0  0  0  0
   -4.2868   -2.4750    0.0000 C   0  0  0  0  0  0  0  0  0  0  0  0
  1  2  1  0  0  0  0
  2  3  1  0  0  0  0
  3  4  1  0  0  0  0
  4  5  4  0  0  0  0
  5  6  4  0  0  0  0
  6  7  1  0  0  0  0
  7  8  1  0  0  0  0
  8  9  2  0  0  0  0
  8 10  1  0  0  0  0
 10 11  1  0  0  0  0
 11 12  1  0  0  0  0
 12 13  1  0  0  0  0
 13 14  1  0  0  0  0
 14 15  1  0  0  0  0
 15 16  1  0  0  0  0
 16 17  2  0  0  0  0
 16 18  1  0  0  0  0
 18 19  1  0  0  0  0
 19 20  4  0  0  0  0
 20 21  4  0  0  0  0
 21 22  4  0  0  0  0
 22 23  4  0  0  0  0
 23 24  4  0  0  0  0
 19 24  4  0  0  0  0
 24 25  1  0  0  0  0
  6 26  4  0  0  0  0
 26 27  4  0  0  0  0
 27 28  4  0  0  0  0
  4 28  4  0  0  0  0
 28 29  1  0  0  0  0
 29 30  1  0  0  0  0
 30 31  1  0  0  0  0
 31 32  1  0  0  0  0
 32 33  2  0  0  0  0
 32 34  1  0  0  0  0
 31 35  2  0  0  0  0
 27 35  1  0  0  0  0
M  CHG  2  32   1  34  -1
M  END
>  <Molecule ChEMBL ID>
CHEMBL4069623

>  <Compound Key>
9c

>  <Document ChEMBL ID>
CHEMBL4052685

>  <HDAC1>
0

$$$$

  Mrv1808 03272221002D          

 38 42  0  0  0  0            999 V2000
    1.4358   -2.7631    0.0000 C   0  0  0  0  0  0  0  0  0  0  0  0
    0.8838   -2.1500    0.0000 C   0  0  0  0  0  0  0  0  0  0  0  0
    0.0768   -2.3215    0.0000 C   0  0  0  0  0  0  0  0  0  0  0  0
    1.1387   -1.3654    0.0000 N   0  0  0  0  0  0  0  0  0  0  0  0
    0.6538   -0.6979    0.0000 C   0  0  0  0  0  0  0  0  0  0  0  0
   -0.1712   -0.6979    0.0000 C   0  0  0  0  0  0  0  0  0  0  0  0
   -0.5837    0.0165    0.0000 N   0  0  0  0  0  0  0  0  0  0  0  0
   -0.1712    0.7310    0.0000 C   0  0  0  0  0  0  0  0  0  0  0  0
   -1.4087    0.0165    0.0000 C   0  0  0  0  0  0  0  0  0  0  0  0
   -1.8212   -0.6979    0.0000 N   0  0  0  0  0  0  0  0  0  0  0  0
   -2.6462   -0.6979    0.0000 C   0  0  0  0  0  0  0  0  0  0  0  0
   -3.0587    0.0165    0.0000 C   0  0  0  0  0  0  0  0  0  0  0  0
   -3.8837    0.0165    0.0000 C   0  0  0  0  0  0  0  0  0  0  0  0
   -4.2962   -0.6979    0.0000 O   0  0  0  0  0  0  0  0  0  0  0  0
   -4.2962    0.7310    0.0000 N   0  0  0  0  0  0  0  0  0  0  0  0
   -5.1212    0.7310    0.0000 O   0  0  0  0  0  0  0  0  0  0  0  0
   -2.6462    0.7310    0.0000 C   0  0  0  0  0  0  0  0  0  0  0  0
   -1.8212    0.7310    0.0000 N   0  0  0  0  0  0  0  0  0  0  0  0
    1.1387   -0.0305    0.0000 N   0  0  0  0  0  0  0  0  0  0  0  0
    1.9233   -0.2854    0.0000 C   0  0  0  0  0  0  0  0  0  0  0  0
    2.6378    0.1271    0.0000 C   0  0  0  0  0  0  0  0  0  0  0  0
    2.6378    0.9521    0.0000 N   0  0  0  0  0  0  0  0  0  0  0  0
    1.9233    1.3646    0.0000 C   0  0  0  0  0  0  0  0  0  0  0  0
    1.9233    2.1896    0.0000 C   0  0  0  0  0  0  0  0  0  0  0  0
    2.6378    2.6021    0.0000 O   0  0  0  0  0  0  0  0  0  0  0  0
    3.3523    2.1896    0.0000 C   0  0  0  0  0  0  0  0  0  0  0  0
    3.3523    1.3646    0.0000 C   0  0  0  0  0  0  0  0  0  0  0  0
    3.3523   -0.2854    0.0000 N   0  0  0  0  0  0  0  0  0  0  0  0
    3.3523   -1.1104    0.0000 C   0  0  0  0  0  0  0  0  0  0  0  0
    4.0668   -1.5229    0.0000 C   0  0  0  0  0  0  0  0  0  0  0  0
    4.7812   -1.1104    0.0000 C   0  0  0  0  0  0  0  0  0  0  0  0
    5.4957   -1.5229    0.0000 N   0  0  0  0  0  0  0  0  0  0  0  0
    5.4957   -2.3479    0.0000 C   0  0  0  0  0  0  0  0  0  0  0  0
    6.2102   -2.7604    0.0000 N   0  0  0  0  0  0  0  0  0  0  0  0
    4.7812   -2.7604    0.0000 N   0  0  0  0  0  0  0  0  0  0  0  0
    4.0668   -2.3479    0.0000 C   0  0  0  0  0  0  0  0  0  0  0  0
    2.6378   -1.5229    0.0000 N   0  0  0  0  0  0  0  0  0  0  0  0
    1.9233   -1.1104    0.0000 C   0  0  0  0  0  0  0  0  0  0  0  0
  1  2  1  0  0  0  0
  2  3  1  0  0  0  0
  2  4  1  0  0  0  0
  4  5  4  0  0  0  0
  5  6  1  0  0  0  0
  6  7  1  0  0  0  0
  7  8  1  0  0  0  0
  7  9  1  0  0  0  0
  9 10  4  0  0  0  0
 10 11  4  0  0  0  0
 11 12  4  0  0  0  0
 12 13  1  0  0  0  0
 13 14  2  0  0  0  0
 13 15  1  0  0  0  0
 15 16  1  0  0  0  0
 12 17  4  0  0  0  0
 17 18  4  0  0  0  0
  9 18  4  0  0  0  0
  5 19  4  0  0  0  0
 19 20  4  0  0  0  0
 20 21  4  0  0  0  0
 21 22  1  0  0  0  0
 22 23  1  0  0  0  0
 23 24  1  0  0  0  0
 24 25  1  0  0  0  0
 25 26  1  0  0  0  0
 26 27  1  0  0  0  0
 22 27  1  0  0  0  0
 21 28  4  0  0  0  0
 28 29  4  0  0  0  0
 29 30  1  0  0  0  0
 30 31  4  0  0  0  0
 31 32  4  0  0  0  0
 32 33  4  0  0  0  0
 33 34  1  0  0  0  0
 33 35  4  0  0  0  0
 35 36  4  0  0  0  0
 30 36  4  0  0  0  0
 29 37  4  0  0  0  0
 37 38  4  0  0  0  0
 20 38  4  0  0  0  0
  4 38  4  0  0  0  0
M  END
>  <Molecule ChEMBL ID>
CHEMBL3827548

>  <Compound Key>
18h

>  <Document ChEMBL ID>
CHEMBL3826921

>  <HDAC1>
0

$$$$

  Mrv1808 03272221002D          

 24 26  0  0  0  0            999 V2000
    1.4289   -3.3000    0.0000 C   0  0  0  0  0  0  0  0  0  0  0  0
    2.1434   -3.7125    0.0000 N   0  0  0  0  0  0  0  0  0  0  0  0
    2.8579   -3.3000    0.0000 C   0  0  0  0  0  0  0  0  0  0  0  0
    2.8579   -2.4750    0.0000 C   0  0  0  0  0  0  0  0  0  0  0  0
    3.5724   -2.0625    0.0000 C   0  0  0  0  0  0  0  0  0  0  0  0
    4.2868   -2.4750    0.0000 C   0  0  0  0  0  0  0  0  0  0  0  0
    5.0013   -2.0625    0.0000 O   0  0  0  0  0  0  0  0  0  0  0  0
    5.7158   -2.4750    0.0000 C   0  0  0  0  0  0  0  0  0  0  0  0
    6.4302   -2.0625    0.0000 C   0  0  0  0  0  0  0  0  0  0  0  0
    6.4302   -1.2375    0.0000 O   0  0  0  0  0  0  0  0  0  0  0  0
    7.1447   -2.4750    0.0000 N   0  0  0  0  0  0  0  0  0  0  0  0
    7.8592   -2.0625    0.0000 O   0  0  0  0  0  0  0  0  0  0  0  0
    4.2868   -3.3000    0.0000 C   0  0  0  0  0  0  0  0  0  0  0  0
    3.5724   -3.7125    0.0000 C   0  0  0  0  0  0  0  0  0  0  0  0
    2.1434   -4.5375    0.0000 C   0  0  0  0  0  0  0  0  0  0  0  0
    2.8579   -4.9500    0.0000 N   0  0  0  0  0  0  0  0  0  0  0  0
    2.8579   -5.7750    0.0000 C   0  0  0  0  0  0  0  0  0  0  0  0
    2.1434   -6.1875    0.0000 N   0  0  0  0  0  0  0  0  0  0  0  0
    1.4289   -5.7750    0.0000 C   0  0  0  0  0  0  0  0  0  0  0  0
    0.7145   -6.1875    0.0000 C   0  0  0  0  0  0  0  0  0  0  0  0
    0.0000   -5.7750    0.0000 C   0  0  0  0  0  0  0  0  0  0  0  0
    0.0000   -4.9500    0.0000 C   0  0  0  0  0  0  0  0  0  0  0  0
    0.7145   -4.5375    0.0000 C   0  0  0  0  0  0  0  0  0  0  0  0
    1.4289   -4.9500    0.0000 C   0  0  0  0  0  0  0  0  0  0  0  0
  1  2  1  0  0  0  0
  2  3  1  0  0  0  0
  3  4  4  0  0  0  0
  4  5  4  0  0  0  0
  5  6  4  0  0  0  0
  6  7  1  0  0  0  0
  7  8  1  0  0  0  0
  8  9  1  0  0  0  0
  9 10  2  0  0  0  0
  9 11  1  0  0  0  0
 11 12  1  0  0  0  0
  6 13  4  0  0  0  0
 13 14  4  0  0  0  0
  3 14  4  0  0  0  0
  2 15  1  0  0  0  0
 15 16  4  0  0  0  0
 16 17  4  0  0  0  0
 17 18  4  0  0  0  0
 18 19  4  0  0  0  0
 19 20  4  0  0  0  0
 20 21  4  0  0  0  0
 21 22  4  0  0  0  0
 22 23  4  0  0  0  0
 23 24  4  0  0  0  0
 15 24  4  0  0  0  0
 19 24  4  0  0  0  0
M  END
>  <Molecule ChEMBL ID>
CHEMBL3774793

>  <Compound Key>
10a

>  <Document ChEMBL ID>
CHEMBL3774354

>  <HDAC1>
0

$$$$

  Mrv1808 03272221002D          

 20 21  0  0  0  0            999 V2000
    1.4289    0.8250    0.0000 C   0  0  0  0  0  0  0  0  0  0  0  0
    1.4289   -0.0000    0.0000 C   0  0  0  0  0  0  0  0  0  0  0  0
    2.1434   -0.4125    0.0000 C   0  0  0  0  0  0  0  0  0  0  0  0
    0.7145   -0.4125    0.0000 C   0  0  0  0  0  0  0  0  0  0  0  0
    0.7145   -1.2375    0.0000 N   0  0  0  0  0  0  0  0  0  0  0  0
    1.3819   -1.7224    0.0000 C   0  0  0  0  0  0  0  0  0  0  0  0
    1.1270   -2.5070    0.0000 C   0  0  0  0  0  0  0  0  0  0  0  0
    0.3020   -2.5070    0.0000 N   0  0  0  0  0  0  0  0  0  0  0  0
   -0.1830   -3.1745    0.0000 C   0  0  0  0  0  0  0  0  0  0  0  0
    0.1526   -3.9282    0.0000 C   0  0  0  0  0  0  0  0  0  0  0  0
   -0.3323   -4.5956    0.0000 C   0  0  0  0  0  0  0  0  0  0  0  0
   -1.1528   -4.5094    0.0000 C   0  0  0  0  0  0  0  0  0  0  0  0
   -1.6377   -5.1768    0.0000 C   0  0  0  0  0  0  0  0  0  0  0  0
   -1.3022   -5.9305    0.0000 O   0  0  0  0  0  0  0  0  0  0  0  0
   -2.4582   -5.0906    0.0000 N   0  0  0  0  0  0  0  0  0  0  0  0
   -2.9431   -5.7580    0.0000 O   0  0  0  0  0  0  0  0  0  0  0  0
   -1.4884   -3.7557    0.0000 C   0  0  0  0  0  0  0  0  0  0  0  0
   -1.0034   -3.0882    0.0000 C   0  0  0  0  0  0  0  0  0  0  0  0
    0.0470   -1.7224    0.0000 C   0  0  0  0  0  0  0  0  0  0  0  0
   -0.7376   -1.4675    0.0000 O   0  0  0  0  0  0  0  0  0  0  0  0
  1  2  1  0  0  0  0
  2  3  1  0  0  0  0
  2  4  1  0  0  0  0
  4  5  1  0  0  0  0
  5  6  1  0  0  0  0
  6  7  1  0  0  0  0
  7  8  1  0  0  0  0
  8  9  1  0  0  0  0
  9 10  4  0  0  0  0
 10 11  4  0  0  0  0
 11 12  4  0  0  0  0
 12 13  1  0  0  0  0
 13 14  2  0  0  0  0
 13 15  1  0  0  0  0
 15 16  1  0  0  0  0
 12 17  4  0  0  0  0
 17 18  4  0  0  0  0
  9 18  4  0  0  0  0
  8 19  1  0  0  0  0
  5 19  1  0  0  0  0
 19 20  2  0  0  0  0
M  END
>  <Molecule ChEMBL ID>
CHEMBL3335009

>  <Compound Key>
1r

>  <Document ChEMBL ID>
CHEMBL3351615

>  <HDAC1>
0

$$$$

  Mrv1808 03272221002D          

 30 32  0  0  0  0            999 V2000
    5.0013   -1.2375    0.0000 C   0  0  0  0  0  0  0  0  0  0  0  0
    4.2868   -0.8250    0.0000 O   0  0  0  0  0  0  0  0  0  0  0  0
    4.2868    0.0000    0.0000 C   0  0  0  0  0  0  0  0  0  0  0  0
    3.5724    0.4125    0.0000 C   0  0  0  0  0  0  0  0  0  0  0  0
    3.5724    1.2375    0.0000 C   0  0  0  0  0  0  0  0  0  0  0  0
    4.2868    1.6500    0.0000 C   0  0  0  0  0  0  0  0  0  0  0  0
    4.2868    2.4750    0.0000 N   0  0  0  0  0  0  0  0  0  0  0  0
    5.0013    2.8875    0.0000 C   0  0  0  0  0  0  0  0  0  0  0  0
    3.5724    2.8875    0.0000 C   0  0  0  0  0  0  0  0  0  0  0  0
    2.8579    2.4750    0.0000 N   0  0  0  0  0  0  0  0  0  0  0  0
    2.1434    2.8875    0.0000 C   0  0  0  0  0  0  0  0  0  0  0  0
    1.4289    2.4750    0.0000 C   0  0  0  0  0  0  0  0  0  0  0  0
    2.1434    3.7125    0.0000 N   0  0  0  0  0  0  0  0  0  0  0  0
    2.8579    4.1250    0.0000 C   0  0  0  0  0  0  0  0  0  0  0  0
    2.8579    4.9500    0.0000 C   0  0  0  0  0  0  0  0  0  0  0  0
    3.5724    5.3625    0.0000 C   0  0  0  0  0  0  0  0  0  0  0  0
    4.2868    4.9500    0.0000 C   0  0  0  0  0  0  0  0  0  0  0  0
    4.2868    4.1250    0.0000 C   0  0  0  0  0  0  0  0  0  0  0  0
    3.5724    3.7125    0.0000 C   0  0  0  0  0  0  0  0  0  0  0  0
    5.0013    1.2375    0.0000 C   0  0  0  0  0  0  0  0  0  0  0  0
    5.0013    0.4125    0.0000 C   0  0  0  0  0  0  0  0  0  0  0  0
    5.7158    0.0000    0.0000 O   0  0  0  0  0  0  0  0  0  0  0  0
    6.4302    0.4125    0.0000 C   0  0  0  0  0  0  0  0  0  0  0  0
    7.1447    0.0000    0.0000 C   0  0  0  0  0  0  0  0  0  0  0  0
    7.8592    0.4125    0.0000 C   0  0  0  0  0  0  0  0  0  0  0  0
    8.5737    0.0000    0.0000 C   0  0  0  0  0  0  0  0  0  0  0  0
    9.2881    0.4125    0.0000 C   0  0  0  0  0  0  0  0  0  0  0  0
    9.2881    1.2375    0.0000 O   0  0  0  0  0  0  0  0  0  0  0  0
   10.0026    0.0000    0.0000 N   0  0  0  0  0  0  0  0  0  0  0  0
   10.7171    0.4125    0.0000 O   0  0  0  0  0  0  0  0  0  0  0  0
  1  2  1  0  0  0  0
  2  3  1  0  0  0  0
  3  4  4  0  0  0  0
  4  5  4  0  0  0  0
  5  6  4  0  0  0  0
  6  7  1  0  0  0  0
  7  8  1  0  0  0  0
  7  9  1  0  0  0  0
  9 10  4  0  0  0  0
 10 11  4  0  0  0  0
 11 12  1  0  0  0  0
 11 13  4  0  0  0  0
 13 14  4  0  0  0  0
 14 15  4  0  0  0  0
 15 16  4  0  0  0  0
 16 17  4  0  0  0  0
 17 18  4  0  0  0  0
 18 19  4  0  0  0  0
  9 19  4  0  0  0  0
 14 19  4  0  0  0  0
  6 20  4  0  0  0  0
 20 21  4  0  0  0  0
  3 21  4  0  0  0  0
 21 22  1  0  0  0  0
 22 23  1  0  0  0  0
 23 24  1  0  0  0  0
 24 25  1  0  0  0  0
 25 26  1  0  0  0  0
 26 27  1  0  0  0  0
 27 28  2  0  0  0  0
 27 29  1  0  0  0  0
 29 30  1  0  0  0  0
M  END
>  <Molecule ChEMBL ID>
CHEMBL3775654

>  <Compound Key>
23bc

>  <Document ChEMBL ID>
CHEMBL3774354

>  <HDAC1>
0

$$$$

  Mrv1808 03272221002D          

 33 35  0  0  0  0            999 V2000
    1.3896   -0.8242    0.0000 O   0  0  0  0  0  0  0  0  0  0  0  0
    1.3896   -1.6492    0.0000 C   0  0  0  0  0  0  0  0  0  0  0  0
    0.6751   -2.0617    0.0000 N   0  0  0  0  0  0  0  0  0  0  0  0
   -0.0393   -1.6492    0.0000 O   0  0  0  0  0  0  0  0  0  0  0  0
    2.1041   -2.0617    0.0000 C   0  0  0  0  0  0  0  0  0  0  0  0
    2.8186   -1.6492    0.0000 C   0  0  0  0  0  0  0  0  0  0  0  0
    3.5330   -2.0617    0.0000 C   0  0  0  0  0  0  0  0  0  0  0  0
    3.5330   -2.8867    0.0000 C   0  0  0  0  0  0  0  0  0  0  0  0
    4.2475   -3.2992    0.0000 C   0  0  0  0  0  0  0  0  0  0  0  0
    4.2475   -4.1242    0.0000 O   0  0  0  0  0  0  0  0  0  0  0  0
    4.9620   -2.8867    0.0000 N   0  0  0  0  0  0  0  0  0  0  0  0
    5.6764   -3.2992    0.0000 C   0  0  0  0  0  0  0  0  0  0  0  0
    6.3909   -2.8867    0.0000 C   0  0  0  0  0  0  0  0  0  0  0  0
    7.1054   -3.2992    0.0000 N   0  0  0  0  0  0  0  0  0  0  0  0
    7.8198   -2.8867    0.0000 C   0  0  0  0  0  0  0  0  0  0  0  0
    7.9061   -2.0662    0.0000 N   0  0  0  0  0  0  0  0  0  0  0  0
    8.7131   -1.8947    0.0000 O   0  0  0  0  0  0  0  0  0  0  0  0
    9.1256   -2.6091    0.0000 N   0  0  0  0  0  0  0  0  0  0  0  0
    8.5735   -3.2222    0.0000 C   0  0  0  0  0  0  0  0  0  0  0  0
    8.7450   -4.0292    0.0000 C   0  0  0  0  0  0  0  0  0  0  0  0
    9.5297   -4.2841    0.0000 N   0  0  0  0  0  0  0  0  0  0  0  0
    9.7012   -5.0911    0.0000 O   0  0  0  0  0  0  0  0  0  0  0  0
    8.1320   -4.5812    0.0000 N   0  0  0  0  0  0  0  0  0  0  0  0
    8.3035   -5.3882    0.0000 C   0  0  0  0  0  0  0  0  0  0  0  0
    9.0881   -5.6431    0.0000 C   0  0  0  0  0  0  0  0  0  0  0  0
    9.2596   -6.4501    0.0000 C   0  0  0  0  0  0  0  0  0  0  0  0
    8.6465   -7.0021    0.0000 C   0  0  0  0  0  0  0  0  0  0  0  0
    8.8181   -7.8091    0.0000 F   0  0  0  0  0  0  0  0  0  0  0  0
    7.8619   -6.7472    0.0000 C   0  0  0  0  0  0  0  0  0  0  0  0
    7.2488   -7.2992    0.0000 Br  0  0  0  0  0  0  0  0  0  0  0  0
    7.6904   -5.9402    0.0000 C   0  0  0  0  0  0  0  0  0  0  0  0
    2.8186   -3.2992    0.0000 C   0  0  0  0  0  0  0  0  0  0  0  0
    2.1041   -2.8867    0.0000 C   0  0  0  0  0  0  0  0  0  0  0  0
  1  2  2  0  0  0  0
  2  3  1  0  0  0  0
  3  4  1  0  0  0  0
  2  5  1  0  0  0  0
  5  6  4  0  0  0  0
  6  7  4  0  0  0  0
  7  8  4  0  0  0  0
  8  9  1  0  0  0  0
  9 10  2  0  0  0  0
  9 11  1  0  0  0  0
 11 12  1  0  0  0  0
 12 13  1  0  0  0  0
 13 14  1  0  0  0  0
 14 15  1  0  0  0  0
 15 16  4  0  0  0  0
 16 17  4  0  0  0  0
 17 18  4  0  0  0  0
 18 19  4  0  0  0  0
 15 19  4  0  0  0  0
 19 20  1  0  0  0  0
 20 21  2  0  0  0  0
 21 22  1  0  0  0  0
 20 23  1  0  0  0  0
 23 24  1  0  0  0  0
 24 25  4  0  0  0  0
 25 26  4  0  0  0  0
 26 27  4  0  0  0  0
 27 28  1  0  0  0  0
 27 29  4  0  0  0  0
 29 30  1  0  0  0  0
 29 31  4  0  0  0  0
 24 31  4  0  0  0  0
  8 32  4  0  0  0  0
 32 33  4  0  0  0  0
  5 33  4  0  0  0  0
M  END
>  <Molecule ChEMBL ID>
CHEMBL4285161

>  <Compound Key>
14

>  <Document ChEMBL ID>
CHEMBL4251732

>  <HDAC1>
0

$$$$

  Mrv1808 03272221002D          

 29 31  0  0  0  0            999 V2000
   -5.7158   -4.1250    0.0000 C   0  0  0  0  0  0  0  0  0  0  0  0
   -5.7158   -4.9500    0.0000 C   0  0  0  0  0  0  0  0  0  0  0  0
   -5.0013   -5.3625    0.0000 N   0  0  0  0  0  0  0  0  0  0  0  0
   -5.0013   -6.1875    0.0000 C   0  0  0  0  0  0  0  0  0  0  0  0
   -4.2868   -6.6000    0.0000 N   0  0  0  0  0  0  0  0  0  0  0  0
   -4.2868   -7.4250    0.0000 C   0  0  0  0  0  0  0  0  0  0  0  0
   -3.5724   -6.1875    0.0000 C   0  0  0  0  0  0  0  0  0  0  0  0
   -3.5724   -5.3625    0.0000 C   0  0  0  0  0  0  0  0  0  0  0  0
   -2.8579   -4.9500    0.0000 C   0  0  0  0  0  0  0  0  0  0  0  0
   -2.1434   -5.3625    0.0000 C   0  0  0  0  0  0  0  0  0  0  0  0
   -1.4289   -4.9500    0.0000 O   0  0  0  0  0  0  0  0  0  0  0  0
   -0.7145   -5.3625    0.0000 C   0  0  0  0  0  0  0  0  0  0  0  0
    0.0000   -4.9500    0.0000 C   0  0  0  0  0  0  0  0  0  0  0  0
    0.7145   -5.3625    0.0000 C   0  0  0  0  0  0  0  0  0  0  0  0
    1.4289   -4.9500    0.0000 C   0  0  0  0  0  0  0  0  0  0  0  0
    2.1434   -5.3625    0.0000 C   0  0  0  0  0  0  0  0  0  0  0  0
    2.8579   -4.9500    0.0000 C   0  0  0  0  0  0  0  0  0  0  0  0
    2.8579   -4.1250    0.0000 O   0  0  0  0  0  0  0  0  0  0  0  0
    3.5724   -5.3625    0.0000 N   0  0  0  0  0  0  0  0  0  0  0  0
    4.2868   -4.9500    0.0000 O   0  0  0  0  0  0  0  0  0  0  0  0
   -2.1434   -6.1875    0.0000 C   0  0  0  0  0  0  0  0  0  0  0  0
   -2.8579   -6.6000    0.0000 C   0  0  0  0  0  0  0  0  0  0  0  0
   -5.7158   -6.6000    0.0000 C   0  0  0  0  0  0  0  0  0  0  0  0
   -5.7158   -7.4250    0.0000 C   0  0  0  0  0  0  0  0  0  0  0  0
   -6.4302   -7.8375    0.0000 C   0  0  0  0  0  0  0  0  0  0  0  0
   -7.1447   -7.4250    0.0000 C   0  0  0  0  0  0  0  0  0  0  0  0
   -7.1447   -6.6000    0.0000 C   0  0  0  0  0  0  0  0  0  0  0  0
   -6.4302   -6.1875    0.0000 C   0  0  0  0  0  0  0  0  0  0  0  0
   -6.4302   -5.3625    0.0000 N   0  0  0  0  0  0  0  0  0  0  0  0
  1  2  1  0  0  0  0
  2  3  4  0  0  0  0
  3  4  4  0  0  0  0
  4  5  1  0  0  0  0
  5  6  1  0  0  0  0
  5  7  1  0  0  0  0
  7  8  4  0  0  0  0
  8  9  4  0  0  0  0
  9 10  4  0  0  0  0
 10 11  1  0  0  0  0
 11 12  1  0  0  0  0
 12 13  1  0  0  0  0
 13 14  1  0  0  0  0
 14 15  1  0  0  0  0
 15 16  1  0  0  0  0
 16 17  1  0  0  0  0
 17 18  2  0  0  0  0
 17 19  1  0  0  0  0
 19 20  1  0  0  0  0
 10 21  4  0  0  0  0
 21 22  4  0  0  0  0
  7 22  4  0  0  0  0
  4 23  4  0  0  0  0
 23 24  4  0  0  0  0
 24 25  4  0  0  0  0
 25 26  4  0  0  0  0
 26 27  4  0  0  0  0
 27 28  4  0  0  0  0
 23 28  4  0  0  0  0
 28 29  4  0  0  0  0
  2 29  4  0  0  0  0
M  END
>  <Molecule ChEMBL ID>
CHEMBL3775409

>  <Compound Key>
7d

>  <Document ChEMBL ID>
CHEMBL3774354

>  <HDAC1>
0

$$$$

  Mrv1808 03272221002D          

 34 36  0  0  0  0            999 V2000
   -0.7145   -6.1875    0.0000 C   0  0  0  0  0  0  0  0  0  0  0  0
   -0.7145   -5.3625    0.0000 C   0  0  0  0  0  0  0  0  0  0  0  0
   -1.4289   -4.9500    0.0000 O   0  0  0  0  0  0  0  0  0  0  0  0
   -1.4289   -4.1250    0.0000 C   0  0  0  0  0  0  0  0  0  0  0  0
   -0.7145   -3.7125    0.0000 C   0  0  0  0  0  0  0  0  0  0  0  0
   -0.7145   -2.8875    0.0000 C   0  0  0  0  0  0  0  0  0  0  0  0
    0.0000   -2.4750    0.0000 N   0  0  0  0  0  0  0  0  0  0  0  0
    0.7145   -2.8875    0.0000 C   0  0  0  0  0  0  0  0  0  0  0  0
    0.7145   -3.7125    0.0000 O   0  0  0  0  0  0  0  0  0  0  0  0
    1.4289   -2.4750    0.0000 C   0  0  0  0  0  0  0  0  0  0  0  0
    2.1434   -2.8875    0.0000 C   0  0  0  0  0  0  0  0  0  0  0  0
    2.8579   -2.4750    0.0000 C   0  0  0  0  0  0  0  0  0  0  0  0
    3.5724   -2.8875    0.0000 C   0  0  0  0  0  0  0  0  0  0  0  0
    4.2868   -2.4750    0.0000 C   0  0  0  0  0  0  0  0  0  0  0  0
    5.0013   -2.8875    0.0000 C   0  0  0  0  0  0  0  0  0  0  0  0
    5.0013   -3.7125    0.0000 O   0  0  0  0  0  0  0  0  0  0  0  0
    5.7158   -2.4750    0.0000 N   0  0  0  0  0  0  0  0  0  0  0  0
    6.4302   -2.8875    0.0000 C   0  0  0  0  0  0  0  0  0  0  0  0
    7.1447   -2.4750    0.0000 C   0  0  0  0  0  0  0  0  0  0  0  0
    7.8592   -2.8875    0.0000 C   0  0  0  0  0  0  0  0  0  0  0  0
    7.8592   -3.7125    0.0000 C   0  0  0  0  0  0  0  0  0  0  0  0
    7.1447   -4.1250    0.0000 C   0  0  0  0  0  0  0  0  0  0  0  0
    6.4302   -3.7125    0.0000 C   0  0  0  0  0  0  0  0  0  0  0  0
    5.7158   -4.1250    0.0000 N   0  0  0  0  0  0  0  0  0  0  0  0
   -1.4289   -2.4750    0.0000 C   0  0  0  0  0  0  0  0  0  0  0  0
   -2.1434   -2.8875    0.0000 C   0  0  0  0  0  0  0  0  0  0  0  0
   -2.1434   -3.7125    0.0000 C   0  0  0  0  0  0  0  0  0  0  0  0
   -2.8579   -4.1250    0.0000 O   0  0  0  0  0  0  0  0  0  0  0  0
   -3.5724   -3.7125    0.0000 C   0  0  0  0  0  0  0  0  0  0  0  0
   -3.5724   -2.8875    0.0000 C   0  0  0  0  0  0  0  0  0  0  0  0
   -4.2868   -2.4750    0.0000 N   0  3  0  0  0  0  0  0  0  0  0  0
   -5.0013   -2.8875    0.0000 O   0  0  0  0  0  0  0  0  0  0  0  0
   -4.2868   -1.6500    0.0000 O   0  5  0  0  0  0  0  0  0  0  0  0
   -2.8579   -2.4750    0.0000 C   0  0  0  0  0  0  0  0  0  0  0  0
  1  2  1  0  0  0  0
  2  3  1  0  0  0  0
  3  4  1  0  0  0  0
  4  5  4  0  0  0  0
  5  6  4  0  0  0  0
  6  7  1  0  0  0  0
  7  8  1  0  0  0  0
  8  9  2  0  0  0  0
  8 10  1  0  0  0  0
 10 11  1  0  0  0  0
 11 12  1  0  0  0  0
 12 13  1  0  0  0  0
 13 14  1  0  0  0  0
 14 15  1  0  0  0  0
 15 16  2  0  0  0  0
 15 17  1  0  0  0  0
 17 18  1  0  0  0  0
 18 19  4  0  0  0  0
 19 20  4  0  0  0  0
 20 21  4  0  0  0  0
 21 22  4  0  0  0  0
 22 23  4  0  0  0  0
 18 23  4  0  0  0  0
 23 24  1  0  0  0  0
  6 25  4  0  0  0  0
 25 26  4  0  0  0  0
 26 27  4  0  0  0  0
  4 27  4  0  0  0  0
 27 28  1  0  0  0  0
 28 29  1  0  0  0  0
 29 30  1  0  0  0  0
 30 31  1  0  0  0  0
 31 32  2  0  0  0  0
 31 33  1  0  0  0  0
 30 34  2  0  0  0  0
 26 34  1  0  0  0  0
M  CHG  2  31   1  33  -1
M  END
>  <Molecule ChEMBL ID>
CHEMBL4103874

>  <Compound Key>
9b

>  <Document ChEMBL ID>
CHEMBL4052685

>  <HDAC1>
0

$$$$

  Mrv1808 03272221002D          

 40 45  0  0  0  0            999 V2000
   -0.1712    0.7310    0.0000 C   0  0  0  0  0  0  0  0  0  0  0  0
   -0.5837    0.0165    0.0000 N   0  0  0  0  0  0  0  0  0  0  0  0
   -0.1712   -0.6979    0.0000 C   0  0  0  0  0  0  0  0  0  0  0  0
    0.6538   -0.6979    0.0000 C   0  0  0  0  0  0  0  0  0  0  0  0
    1.1387   -0.0305    0.0000 N   0  0  0  0  0  0  0  0  0  0  0  0
    1.9233   -0.2854    0.0000 C   0  0  0  0  0  0  0  0  0  0  0  0
    2.6378    0.1271    0.0000 C   0  0  0  0  0  0  0  0  0  0  0  0
    2.6378    0.9521    0.0000 N   0  0  0  0  0  0  0  0  0  0  0  0
    1.9233    1.3646    0.0000 C   0  0  0  0  0  0  0  0  0  0  0  0
    1.9233    2.1896    0.0000 C   0  0  0  0  0  0  0  0  0  0  0  0
    2.6378    2.6021    0.0000 O   0  0  0  0  0  0  0  0  0  0  0  0
    3.3523    2.1896    0.0000 C   0  0  0  0  0  0  0  0  0  0  0  0
    3.3523    1.3646    0.0000 C   0  0  0  0  0  0  0  0  0  0  0  0
    3.3523   -0.2854    0.0000 N   0  0  0  0  0  0  0  0  0  0  0  0
    3.3523   -1.1104    0.0000 C   0  0  0  0  0  0  0  0  0  0  0  0
    4.0668   -1.5229    0.0000 C   0  0  0  0  0  0  0  0  0  0  0  0
    4.7812   -1.1104    0.0000 C   0  0  0  0  0  0  0  0  0  0  0  0
    5.4957   -1.5229    0.0000 N   0  0  0  0  0  0  0  0  0  0  0  0
    5.4957   -2.3479    0.0000 C   0  0  0  0  0  0  0  0  0  0  0  0
    6.2102   -2.7604    0.0000 N   0  0  0  0  0  0  0  0  0  0  0  0
    4.7812   -2.7604    0.0000 N   0  0  0  0  0  0  0  0  0  0  0  0
    4.0668   -2.3479    0.0000 C   0  0  0  0  0  0  0  0  0  0  0  0
    2.6378   -1.5229    0.0000 N   0  0  0  0  0  0  0  0  0  0  0  0
    1.9233   -1.1104    0.0000 C   0  0  0  0  0  0  0  0  0  0  0  0
    1.1387   -1.3654    0.0000 N   0  0  0  0  0  0  0  0  0  0  0  0
    0.8838   -2.1500    0.0000 C   0  0  0  0  0  0  0  0  0  0  0  0
    1.3687   -2.8174    0.0000 C   0  0  0  0  0  0  0  0  0  0  0  0
    0.8838   -3.4849    0.0000 C   0  0  0  0  0  0  0  0  0  0  0  0
    0.0992   -3.2299    0.0000 C   0  0  0  0  0  0  0  0  0  0  0  0
    0.0992   -2.4049    0.0000 C   0  0  0  0  0  0  0  0  0  0  0  0
   -1.4087    0.0165    0.0000 C   0  0  0  0  0  0  0  0  0  0  0  0
   -1.8212   -0.6979    0.0000 N   0  0  0  0  0  0  0  0  0  0  0  0
   -2.6462   -0.6979    0.0000 C   0  0  0  0  0  0  0  0  0  0  0  0
   -3.0587    0.0165    0.0000 C   0  0  0  0  0  0  0  0  0  0  0  0
   -3.8837    0.0165    0.0000 C   0  0  0  0  0  0  0  0  0  0  0  0
   -4.2962   -0.6979    0.0000 O   0  0  0  0  0  0  0  0  0  0  0  0
   -4.2962    0.7310    0.0000 N   0  0  0  0  0  0  0  0  0  0  0  0
   -5.1212    0.7310    0.0000 O   0  0  0  0  0  0  0  0  0  0  0  0
   -2.6462    0.7310    0.0000 C   0  0  0  0  0  0  0  0  0  0  0  0
   -1.8212    0.7310    0.0000 N   0  0  0  0  0  0  0  0  0  0  0  0
  1  2  1  0  0  0  0
  2  3  1  0  0  0  0
  3  4  1  0  0  0  0
  4  5  4  0  0  0  0
  5  6  4  0  0  0  0
  6  7  4  0  0  0  0
  7  8  1  0  0  0  0
  8  9  1  0  0  0  0
  9 10  1  0  0  0  0
 10 11  1  0  0  0  0
 11 12  1  0  0  0  0
 12 13  1  0  0  0  0
  8 13  1  0  0  0  0
  7 14  4  0  0  0  0
 14 15  4  0  0  0  0
 15 16  1  0  0  0  0
 16 17  4  0  0  0  0
 17 18  4  0  0  0  0
 18 19  4  0  0  0  0
 19 20  1  0  0  0  0
 19 21  4  0  0  0  0
 21 22  4  0  0  0  0
 16 22  4  0  0  0  0
 15 23  4  0  0  0  0
 23 24  4  0  0  0  0
  6 24  4  0  0  0  0
 24 25  4  0  0  0  0
  4 25  4  0  0  0  0
 25 26  1  0  0  0  0
 26 27  1  0  0  0  0
 27 28  1  0  0  0  0
 28 29  1  0  0  0  0
 29 30  1  0  0  0  0
 26 30  1  0  0  0  0
  2 31  1  0  0  0  0
 31 32  4  0  0  0  0
 32 33  4  0  0  0  0
 33 34  4  0  0  0  0
 34 35  1  0  0  0  0
 35 36  2  0  0  0  0
 35 37  1  0  0  0  0
 37 38  1  0  0  0  0
 34 39  4  0  0  0  0
 39 40  4  0  0  0  0
 31 40  4  0  0  0  0
M  END
>  <Molecule ChEMBL ID>
CHEMBL3828164

>  <Compound Key>
18i

>  <Document ChEMBL ID>
CHEMBL3826921

>  <HDAC1>
0

$$$$

  Mrv1808 03272221002D          

 28 30  0  0  0  0            999 V2000
   -5.7158   -1.6500    0.0000 C   0  0  0  0  0  0  0  0  0  0  0  0
   -5.7158   -2.4750    0.0000 C   0  0  0  0  0  0  0  0  0  0  0  0
   -5.0013   -2.8875    0.0000 N   0  0  0  0  0  0  0  0  0  0  0  0
   -5.0013   -3.7125    0.0000 C   0  0  0  0  0  0  0  0  0  0  0  0
   -4.2868   -4.1250    0.0000 N   0  0  0  0  0  0  0  0  0  0  0  0
   -4.2868   -4.9500    0.0000 C   0  0  0  0  0  0  0  0  0  0  0  0
   -3.5724   -3.7125    0.0000 C   0  0  0  0  0  0  0  0  0  0  0  0
   -3.5724   -2.8875    0.0000 C   0  0  0  0  0  0  0  0  0  0  0  0
   -2.8579   -2.4750    0.0000 C   0  0  0  0  0  0  0  0  0  0  0  0
   -2.1434   -2.8875    0.0000 C   0  0  0  0  0  0  0  0  0  0  0  0
   -2.1434   -3.7125    0.0000 C   0  0  0  0  0  0  0  0  0  0  0  0
   -1.4289   -4.1250    0.0000 O   0  0  0  0  0  0  0  0  0  0  0  0
   -0.7145   -3.7125    0.0000 C   0  0  0  0  0  0  0  0  0  0  0  0
    0.0000   -4.1250    0.0000 C   0  0  0  0  0  0  0  0  0  0  0  0
    0.7145   -3.7125    0.0000 C   0  0  0  0  0  0  0  0  0  0  0  0
    1.4289   -4.1250    0.0000 C   0  0  0  0  0  0  0  0  0  0  0  0
    2.1434   -3.7125    0.0000 C   0  0  0  0  0  0  0  0  0  0  0  0
    2.1434   -2.8875    0.0000 O   0  0  0  0  0  0  0  0  0  0  0  0
    2.8579   -4.1250    0.0000 N   0  0  0  0  0  0  0  0  0  0  0  0
    3.5724   -3.7125    0.0000 O   0  0  0  0  0  0  0  0  0  0  0  0
   -2.8579   -4.1250    0.0000 C   0  0  0  0  0  0  0  0  0  0  0  0
   -5.7158   -4.1250    0.0000 C   0  0  0  0  0  0  0  0  0  0  0  0
   -5.7158   -4.9500    0.0000 C   0  0  0  0  0  0  0  0  0  0  0  0
   -6.4302   -5.3625    0.0000 C   0  0  0  0  0  0  0  0  0  0  0  0
   -7.1447   -4.9500    0.0000 C   0  0  0  0  0  0  0  0  0  0  0  0
   -7.1447   -4.1250    0.0000 C   0  0  0  0  0  0  0  0  0  0  0  0
   -6.4302   -3.7125    0.0000 C   0  0  0  0  0  0  0  0  0  0  0  0
   -6.4302   -2.8875    0.0000 N   0  0  0  0  0  0  0  0  0  0  0  0
  1  2  1  0  0  0  0
  2  3  4  0  0  0  0
  3  4  4  0  0  0  0
  4  5  1  0  0  0  0
  5  6  1  0  0  0  0
  5  7  1  0  0  0  0
  7  8  4  0  0  0  0
  8  9  4  0  0  0  0
  9 10  4  0  0  0  0
 10 11  4  0  0  0  0
 11 12  1  0  0  0  0
 12 13  1  0  0  0  0
 13 14  1  0  0  0  0
 14 15  1  0  0  0  0
 15 16  1  0  0  0  0
 16 17  1  0  0  0  0
 17 18  2  0  0  0  0
 17 19  1  0  0  0  0
 19 20  1  0  0  0  0
 11 21  4  0  0  0  0
  7 21  4  0  0  0  0
  4 22  4  0  0  0  0
 22 23  4  0  0  0  0
 23 24  4  0  0  0  0
 24 25  4  0  0  0  0
 25 26  4  0  0  0  0
 26 27  4  0  0  0  0
 22 27  4  0  0  0  0
 27 28  4  0  0  0  0
  2 28  4  0  0  0  0
M  END
>  <Molecule ChEMBL ID>
CHEMBL3774994

>  <Compound Key>
23ac

>  <Document ChEMBL ID>
CHEMBL3774354

>  <HDAC1>
0

$$$$

  Mrv1808 03272221002D          

 31 32  0  0  0  0            999 V2000
    7.8823   -1.4675    0.0000 O   0  0  0  0  0  0  0  0  0  0  0  0
    7.8823   -2.2925    0.0000 C   0  0  0  0  0  0  0  0  0  0  0  0
    7.1678   -2.7050    0.0000 C   0  0  0  0  0  0  0  0  0  0  0  0
    6.4534   -2.2925    0.0000 C   0  0  0  0  0  0  0  0  0  0  0  0
    5.7389   -2.7050    0.0000 C   0  0  0  0  0  0  0  0  0  0  0  0
    5.0244   -2.2925    0.0000 C   0  0  0  0  0  0  0  0  0  0  0  0
    4.3099   -2.7050    0.0000 C   0  0  0  0  0  0  0  0  0  0  0  0
    4.3099   -3.5300    0.0000 O   0  0  0  0  0  0  0  0  0  0  0  0
    3.5955   -2.2925    0.0000 N   0  0  0  0  0  0  0  0  0  0  0  0
    2.8810   -2.7050    0.0000 C   0  0  0  0  0  0  0  0  0  0  0  0
    2.1665   -2.2925    0.0000 C   0  0  0  0  0  0  0  0  0  0  0  0
    1.4521   -2.7050    0.0000 N   0  0  0  0  0  0  0  0  0  0  0  0
    0.7376   -2.2925    0.0000 C   0  0  0  0  0  0  0  0  0  0  0  0
   -0.0161   -2.6280    0.0000 N   0  0  0  0  0  0  0  0  0  0  0  0
   -0.5681   -2.0149    0.0000 O   0  0  0  0  0  0  0  0  0  0  0  0
   -0.1556   -1.3005    0.0000 N   0  0  0  0  0  0  0  0  0  0  0  0
    0.6514   -1.4720    0.0000 C   0  0  0  0  0  0  0  0  0  0  0  0
    1.2644   -0.9200    0.0000 C   0  0  0  0  0  0  0  0  0  0  0  0
    1.0929   -0.1130    0.0000 N   0  0  0  0  0  0  0  0  0  0  0  0
    1.7060    0.4390    0.0000 O   0  0  0  0  0  0  0  0  0  0  0  0
    2.0491   -1.1749    0.0000 N   0  0  0  0  0  0  0  0  0  0  0  0
    2.6622   -0.6229    0.0000 C   0  0  0  0  0  0  0  0  0  0  0  0
    2.4906    0.1841    0.0000 C   0  0  0  0  0  0  0  0  0  0  0  0
    3.1037    0.7361    0.0000 C   0  0  0  0  0  0  0  0  0  0  0  0
    3.8884    0.4812    0.0000 C   0  0  0  0  0  0  0  0  0  0  0  0
    4.5014    1.0332    0.0000 F   0  0  0  0  0  0  0  0  0  0  0  0
    4.0599   -0.3258    0.0000 C   0  0  0  0  0  0  0  0  0  0  0  0
    4.8445   -0.5807    0.0000 Br  0  0  0  0  0  0  0  0  0  0  0  0
    3.4468   -0.8778    0.0000 C   0  0  0  0  0  0  0  0  0  0  0  0
    8.5968   -2.7050    0.0000 N   0  0  0  0  0  0  0  0  0  0  0  0
    9.3112   -2.2925    0.0000 O   0  0  0  0  0  0  0  0  0  0  0  0
  1  2  2  0  0  0  0
  2  3  1  0  0  0  0
  3  4  1  0  0  0  0
  4  5  1  0  0  0  0
  5  6  1  0  0  0  0
  6  7  1  0  0  0  0
  7  8  2  0  0  0  0
  7  9  1  0  0  0  0
  9 10  1  0  0  0  0
 10 11  1  0  0  0  0
 11 12  1  0  0  0  0
 12 13  1  0  0  0  0
 13 14  4  0  0  0  0
 14 15  4  0  0  0  0
 15 16  4  0  0  0  0
 16 17  4  0  0  0  0
 13 17  4  0  0  0  0
 17 18  1  0  0  0  0
 18 19  2  0  0  0  0
 19 20  1  0  0  0  0
 18 21  1  0  0  0  0
 21 22  1  0  0  0  0
 22 23  4  0  0  0  0
 23 24  4  0  0  0  0
 24 25  4  0  0  0  0
 25 26  1  0  0  0  0
 25 27  4  0  0  0  0
 27 28  1  0  0  0  0
 27 29  4  0  0  0  0
 22 29  4  0  0  0  0
  2 30  1  0  0  0  0
 30 31  1  0  0  0  0
M  END
>  <Molecule ChEMBL ID>
CHEMBL4277764

>  <Compound Key>
21

>  <Document ChEMBL ID>
CHEMBL4251732

>  <HDAC1>
0

$$$$

  Mrv1808 03272221002D          

 38 42  0  0  0  0            999 V2000
    0.0000   -5.7750    0.0000 C   0  0  0  0  0  0  0  0  0  0  0  0
    0.0000   -4.9500    0.0000 C   0  0  0  0  0  0  0  0  0  0  0  0
    0.0000   -4.1250    0.0000 C   0  0  0  0  0  0  0  0  0  0  0  0
   -0.7145   -3.7125    0.0000 C   0  0  0  0  0  0  0  0  0  0  0  0
   -0.7145   -2.8875    0.0000 C   0  0  0  0  0  0  0  0  0  0  0  0
    0.0000   -2.4750    0.0000 C   0  0  0  0  0  0  0  0  0  0  0  0
    0.7145   -2.8875    0.0000 C   0  0  0  0  0  0  0  0  0  0  0  0
    1.4289   -2.4750    0.0000 N   0  0  0  0  0  0  0  0  0  0  0  0
    1.4289   -1.6500    0.0000 C   0  0  0  0  0  0  0  0  0  0  0  0
    0.7145   -1.2375    0.0000 N   0  0  0  0  0  0  0  0  0  0  0  0
    0.7145   -0.4125    0.0000 C   0  0  0  0  0  0  0  0  0  0  0  0
    1.4289    0.0000    0.0000 N   0  0  0  0  0  0  0  0  0  0  0  0
    2.1434   -0.4125    0.0000 C   0  0  0  0  0  0  0  0  0  0  0  0
    2.8579    0.0000    0.0000 C   0  0  0  0  0  0  0  0  0  0  0  0
    3.5724   -0.4125    0.0000 C   0  0  0  0  0  0  0  0  0  0  0  0
    3.5724   -1.2375    0.0000 C   0  0  0  0  0  0  0  0  0  0  0  0
    4.2868   -1.6500    0.0000 N   0  0  0  0  0  0  0  0  0  0  0  0
    5.0013   -1.2375    0.0000 C   0  0  0  0  0  0  0  0  0  0  0  0
    5.0013   -0.4125    0.0000 O   0  0  0  0  0  0  0  0  0  0  0  0
    5.7158   -1.6500    0.0000 C   0  0  0  0  0  0  0  0  0  0  0  0
    6.4302   -1.2375    0.0000 C   0  0  0  0  0  0  0  0  0  0  0  0
    7.1447   -1.6500    0.0000 C   0  0  0  0  0  0  0  0  0  0  0  0
    7.1447   -2.4750    0.0000 C   0  0  0  0  0  0  0  0  0  0  0  0
    7.8592   -2.8875    0.0000 C   0  0  0  0  0  0  0  0  0  0  0  0
    7.8592   -3.7125    0.0000 O   0  0  0  0  0  0  0  0  0  0  0  0
    8.5737   -2.4750    0.0000 N   0  0  0  0  0  0  0  0  0  0  0  0
    9.2881   -2.8875    0.0000 C   0  0  0  0  0  0  0  0  0  0  0  0
   10.0026   -2.4750    0.0000 C   0  0  0  0  0  0  0  0  0  0  0  0
   10.7171   -2.8875    0.0000 C   0  0  0  0  0  0  0  0  0  0  0  0
   10.7171   -3.7125    0.0000 C   0  0  0  0  0  0  0  0  0  0  0  0
   10.0026   -4.1250    0.0000 C   0  0  0  0  0  0  0  0  0  0  0  0
    9.2881   -3.7125    0.0000 C   0  0  0  0  0  0  0  0  0  0  0  0
    8.5737   -4.1250    0.0000 N   0  0  0  0  0  0  0  0  0  0  0  0
    6.4302   -2.8875    0.0000 N   0  0  0  0  0  0  0  0  0  0  0  0
    5.7158   -2.4750    0.0000 C   0  0  0  0  0  0  0  0  0  0  0  0
    2.8579   -1.6500    0.0000 C   0  0  0  0  0  0  0  0  0  0  0  0
    2.1434   -1.2375    0.0000 C   0  0  0  0  0  0  0  0  0  0  0  0
    0.7145   -3.7125    0.0000 C   0  0  0  0  0  0  0  0  0  0  0  0
  1  2  3  0  0  0  0
  2  3  1  0  0  0  0
  3  4  4  0  0  0  0
  4  5  4  0  0  0  0
  5  6  4  0  0  0  0
  6  7  4  0  0  0  0
  7  8  1  0  0  0  0
  8  9  1  0  0  0  0
  9 10  4  0  0  0  0
 10 11  4  0  0  0  0
 11 12  4  0  0  0  0
 12 13  4  0  0  0  0
 13 14  4  0  0  0  0
 14 15  4  0  0  0  0
 15 16  4  0  0  0  0
 16 17  1  0  0  0  0
 17 18  1  0  0  0  0
 18 19  2  0  0  0  0
 18 20  1  0  0  0  0
 20 21  4  0  0  0  0
 21 22  4  0  0  0  0
 22 23  4  0  0  0  0
 23 24  1  0  0  0  0
 24 25  2  0  0  0  0
 24 26  1  0  0  0  0
 26 27  1  0  0  0  0
 27 28  4  0  0  0  0
 28 29  4  0  0  0  0
 29 30  4  0  0  0  0
 30 31  4  0  0  0  0
 31 32  4  0  0  0  0
 27 32  4  0  0  0  0
 32 33  1  0  0  0  0
 23 34  4  0  0  0  0
 34 35  4  0  0  0  0
 20 35  4  0  0  0  0
 16 36  4  0  0  0  0
 36 37  4  0  0  0  0
  9 37  4  0  0  0  0
 13 37  4  0  0  0  0
  7 38  4  0  0  0  0
  3 38  4  0  0  0  0
M  END
>  <Molecule ChEMBL ID>
CHEMBL3217998

>  <Compound Key>
7b

>  <Document ChEMBL ID>
CHEMBL3217617

>  <HDAC1>
0

$$$$

  Mrv1808 03272221002D          

 40 43  0  0  0  0            999 V2000
   -0.7145   -6.1875    0.0000 C   0  0  0  0  0  0  0  0  0  0  0  0
   -0.7145   -5.3625    0.0000 C   0  0  0  0  0  0  0  0  0  0  0  0
   -1.4289   -4.9500    0.0000 O   0  0  0  0  0  0  0  0  0  0  0  0
   -1.4289   -4.1250    0.0000 C   0  0  0  0  0  0  0  0  0  0  0  0
   -0.7145   -3.7125    0.0000 C   0  0  0  0  0  0  0  0  0  0  0  0
   -0.7145   -2.8875    0.0000 C   0  0  0  0  0  0  0  0  0  0  0  0
    0.0000   -2.4750    0.0000 N   0  0  0  0  0  0  0  0  0  0  0  0
    0.7145   -2.8875    0.0000 C   0  0  0  0  0  0  0  0  0  0  0  0
    0.7145   -3.7125    0.0000 O   0  0  0  0  0  0  0  0  0  0  0  0
    1.4289   -2.4750    0.0000 C   0  0  0  0  0  0  0  0  0  0  0  0
    2.1434   -2.8875    0.0000 C   0  0  0  0  0  0  0  0  0  0  0  0
    2.8579   -2.4750    0.0000 C   0  0  0  0  0  0  0  0  0  0  0  0
    3.5724   -2.8875    0.0000 C   0  0  0  0  0  0  0  0  0  0  0  0
    4.2868   -2.4750    0.0000 C   0  0  0  0  0  0  0  0  0  0  0  0
    5.0013   -2.8875    0.0000 C   0  0  0  0  0  0  0  0  0  0  0  0
    5.0013   -3.7125    0.0000 O   0  0  0  0  0  0  0  0  0  0  0  0
    5.7158   -2.4750    0.0000 N   0  0  0  0  0  0  0  0  0  0  0  0
    6.4302   -2.8875    0.0000 C   0  0  0  0  0  0  0  0  0  0  0  0
    7.1447   -2.4750    0.0000 C   0  0  0  0  0  0  0  0  0  0  0  0
    7.8592   -2.8875    0.0000 C   0  0  0  0  0  0  0  0  0  0  0  0
    8.5737   -2.4750    0.0000 C   0  0  0  0  0  0  0  0  0  0  0  0
    8.6599   -1.6545    0.0000 C   0  0  0  0  0  0  0  0  0  0  0  0
    9.4669   -1.4830    0.0000 C   0  0  0  0  0  0  0  0  0  0  0  0
    9.8794   -2.1975    0.0000 C   0  0  0  0  0  0  0  0  0  0  0  0
   10.6998   -2.2837    0.0000 C   0  0  0  0  0  0  0  0  0  0  0  0
    9.3273   -2.8106    0.0000 S   0  0  0  0  0  0  0  0  0  0  0  0
    7.8592   -3.7125    0.0000 C   0  0  0  0  0  0  0  0  0  0  0  0
    7.1447   -4.1250    0.0000 C   0  0  0  0  0  0  0  0  0  0  0  0
    6.4302   -3.7125    0.0000 C   0  0  0  0  0  0  0  0  0  0  0  0
    5.7158   -4.1250    0.0000 N   0  0  0  0  0  0  0  0  0  0  0  0
   -1.4289   -2.4750    0.0000 C   0  0  0  0  0  0  0  0  0  0  0  0
   -2.1434   -2.8875    0.0000 C   0  0  0  0  0  0  0  0  0  0  0  0
   -2.1434   -3.7125    0.0000 C   0  0  0  0  0  0  0  0  0  0  0  0
   -2.8579   -4.1250    0.0000 O   0  0  0  0  0  0  0  0  0  0  0  0
   -3.5724   -3.7125    0.0000 C   0  0  0  0  0  0  0  0  0  0  0  0
   -3.5724   -2.8875    0.0000 C   0  0  0  0  0  0  0  0  0  0  0  0
   -4.2868   -2.4750    0.0000 N   0  3  0  0  0  0  0  0  0  0  0  0
   -5.0013   -2.8875    0.0000 O   0  0  0  0  0  0  0  0  0  0  0  0
   -4.2868   -1.6500    0.0000 O   0  5  0  0  0  0  0  0  0  0  0  0
   -2.8579   -2.4750    0.0000 C   0  0  0  0  0  0  0  0  0  0  0  0
  1  2  1  0  0  0  0
  2  3  1  0  0  0  0
  3  4  1  0  0  0  0
  4  5  4  0  0  0  0
  5  6  4  0  0  0  0
  6  7  1  0  0  0  0
  7  8  1  0  0  0  0
  8  9  2  0  0  0  0
  8 10  1  0  0  0  0
 10 11  1  0  0  0  0
 11 12  1  0  0  0  0
 12 13  1  0  0  0  0
 13 14  1  0  0  0  0
 14 15  1  0  0  0  0
 15 16  2  0  0  0  0
 15 17  1  0  0  0  0
 17 18  1  0  0  0  0
 18 19  4  0  0  0  0
 19 20  4  0  0  0  0
 20 21  1  0  0  0  0
 21 22  4  0  0  0  0
 22 23  4  0  0  0  0
 23 24  4  0  0  0  0
 24 25  1  0  0  0  0
 24 26  4  0  0  0  0
 21 26  4  0  0  0  0
 20 27  4  0  0  0  0
 27 28  4  0  0  0  0
 28 29  4  0  0  0  0
 18 29  4  0  0  0  0
 29 30  1  0  0  0  0
  6 31  4  0  0  0  0
 31 32  4  0  0  0  0
 32 33  4  0  0  0  0
  4 33  4  0  0  0  0
 33 34  1  0  0  0  0
 34 35  1  0  0  0  0
 35 36  1  0  0  0  0
 36 37  1  0  0  0  0
 37 38  2  0  0  0  0
 37 39  1  0  0  0  0
 36 40  2  0  0  0  0
 32 40  1  0  0  0  0
M  CHG  2  37   1  39  -1
M  END
>  <Molecule ChEMBL ID>
CHEMBL4072341

>  <Compound Key>
11b

>  <Document ChEMBL ID>
CHEMBL4052685

>  <HDAC1>
0

$$$$

  Mrv1808 03272221002D          

 29 31  0  0  0  0            999 V2000
    6.4302   -1.2375    0.0000 C   0  0  0  0  0  0  0  0  0  0  0  0
    5.7158   -1.6500    0.0000 O   0  0  0  0  0  0  0  0  0  0  0  0
    5.0013   -1.2375    0.0000 C   0  0  0  0  0  0  0  0  0  0  0  0
    4.2868   -1.6500    0.0000 C   0  0  0  0  0  0  0  0  0  0  0  0
    3.5724   -1.2375    0.0000 C   0  0  0  0  0  0  0  0  0  0  0  0
    3.5724   -0.4125    0.0000 C   0  0  0  0  0  0  0  0  0  0  0  0
    2.8579    0.0000    0.0000 N   0  0  0  0  0  0  0  0  0  0  0  0
    2.8579    0.8250    0.0000 C   0  0  0  0  0  0  0  0  0  0  0  0
    2.1434   -0.4125    0.0000 C   0  0  0  0  0  0  0  0  0  0  0  0
    2.1434   -1.2375    0.0000 N   0  0  0  0  0  0  0  0  0  0  0  0
    1.4289   -1.6500    0.0000 C   0  0  0  0  0  0  0  0  0  0  0  0
    1.4289   -2.4750    0.0000 C   0  0  0  0  0  0  0  0  0  0  0  0
    0.7145   -1.2375    0.0000 N   0  0  0  0  0  0  0  0  0  0  0  0
    0.7145   -0.4125    0.0000 C   0  0  0  0  0  0  0  0  0  0  0  0
    0.0000    0.0000    0.0000 C   0  0  0  0  0  0  0  0  0  0  0  0
    0.0000    0.8250    0.0000 C   0  0  0  0  0  0  0  0  0  0  0  0
    0.7145    1.2375    0.0000 C   0  0  0  0  0  0  0  0  0  0  0  0
    1.4289    0.8250    0.0000 C   0  0  0  0  0  0  0  0  0  0  0  0
    1.4289    0.0000    0.0000 C   0  0  0  0  0  0  0  0  0  0  0  0
    4.2868    0.0000    0.0000 C   0  0  0  0  0  0  0  0  0  0  0  0
    5.0013   -0.4125    0.0000 C   0  0  0  0  0  0  0  0  0  0  0  0
    5.7158    0.0000    0.0000 O   0  0  0  0  0  0  0  0  0  0  0  0
    6.4302   -0.4125    0.0000 C   0  0  0  0  0  0  0  0  0  0  0  0
    7.1447    0.0000    0.0000 C   0  0  0  0  0  0  0  0  0  0  0  0
    7.8592   -0.4125    0.0000 C   0  0  0  0  0  0  0  0  0  0  0  0
    8.5737    0.0000    0.0000 C   0  0  0  0  0  0  0  0  0  0  0  0
    8.5737    0.8250    0.0000 O   0  0  0  0  0  0  0  0  0  0  0  0
    9.2881   -0.4125    0.0000 N   0  0  0  0  0  0  0  0  0  0  0  0
   10.0026    0.0000    0.0000 O   0  0  0  0  0  0  0  0  0  0  0  0
  1  2  1  0  0  0  0
  2  3  1  0  0  0  0
  3  4  4  0  0  0  0
  4  5  4  0  0  0  0
  5  6  4  0  0  0  0
  6  7  1  0  0  0  0
  7  8  1  0  0  0  0
  7  9  1  0  0  0  0
  9 10  4  0  0  0  0
 10 11  4  0  0  0  0
 11 12  1  0  0  0  0
 11 13  4  0  0  0  0
 13 14  4  0  0  0  0
 14 15  4  0  0  0  0
 15 16  4  0  0  0  0
 16 17  4  0  0  0  0
 17 18  4  0  0  0  0
 18 19  4  0  0  0  0
  9 19  4  0  0  0  0
 14 19  4  0  0  0  0
  6 20  4  0  0  0  0
 20 21  4  0  0  0  0
  3 21  4  0  0  0  0
 21 22  1  0  0  0  0
 22 23  1  0  0  0  0
 23 24  1  0  0  0  0
 24 25  1  0  0  0  0
 25 26  1  0  0  0  0
 26 27  2  0  0  0  0
 26 28  1  0  0  0  0
 28 29  1  0  0  0  0
M  END
>  <Molecule ChEMBL ID>
CHEMBL3774414

>  <Compound Key>
23bb

>  <Document ChEMBL ID>
CHEMBL3774354

>  <HDAC1>
0

$$$$

  Mrv1808 03272221002D          

 38 42  0  0  0  0            999 V2000
   -5.0013   -7.8375    0.0000 O   0  0  0  0  0  0  0  0  0  0  0  0
   -4.2868   -7.4250    0.0000 C   0  0  0  0  0  0  0  0  0  0  0  0
   -3.5724   -7.8375    0.0000 N   0  0  0  0  0  0  0  0  0  0  0  0
   -3.5724   -8.6625    0.0000 O   0  0  0  0  0  0  0  0  0  0  0  0
   -4.2868   -6.6000    0.0000 C   0  0  0  0  0  0  0  0  0  0  0  0
   -5.0013   -6.1875    0.0000 C   0  0  0  0  0  0  0  0  0  0  0  0
   -5.0013   -5.3625    0.0000 C   0  0  0  0  0  0  0  0  0  0  0  0
   -4.2868   -4.9500    0.0000 C   0  0  0  0  0  0  0  0  0  0  0  0
   -4.2868   -4.1250    0.0000 C   0  0  0  0  0  0  0  0  0  0  0  0
   -3.5724   -3.7125    0.0000 N   0  0  0  0  0  0  0  0  0  0  0  0
   -3.5724   -2.8875    0.0000 C   0  0  0  0  0  0  0  0  0  0  0  0
   -2.8579   -2.4750    0.0000 C   0  0  0  0  0  0  0  0  0  0  0  0
   -2.1434   -2.8875    0.0000 N   0  0  0  0  0  0  0  0  0  0  0  0
   -1.4289   -2.4750    0.0000 C   0  0  0  0  0  0  0  0  0  0  0  0
   -1.4289   -1.6500    0.0000 O   0  0  0  0  0  0  0  0  0  0  0  0
   -0.7145   -2.8875    0.0000 C   0  0  0  0  0  0  0  0  0  0  0  0
    0.0000   -2.4750    0.0000 C   0  0  0  0  0  0  0  0  0  0  0  0
    0.7145   -2.8875    0.0000 C   0  0  0  0  0  0  0  0  0  0  0  0
    1.4289   -2.4750    0.0000 C   0  0  0  0  0  0  0  0  0  0  0  0
    1.4289   -1.6500    0.0000 C   0  0  0  0  0  0  0  0  0  0  0  0
    0.7145   -1.2375    0.0000 N   0  0  0  0  0  0  0  0  0  0  0  0
    0.7145   -0.4125    0.0000 N   0  0  0  0  0  0  0  0  0  0  0  0
    1.4289    0.0000    0.0000 C   0  0  0  0  0  0  0  0  0  0  0  0
    1.4289    0.8250    0.0000 O   0  0  0  0  0  0  0  0  0  0  0  0
    2.1434   -0.4125    0.0000 C   0  0  0  0  0  0  0  0  0  0  0  0
    2.8579    0.0000    0.0000 C   0  0  0  0  0  0  0  0  0  0  0  0
    3.5724   -0.4125    0.0000 C   0  0  0  0  0  0  0  0  0  0  0  0
    3.5724   -1.2375    0.0000 C   0  0  0  0  0  0  0  0  0  0  0  0
    2.8579   -1.6500    0.0000 C   0  0  0  0  0  0  0  0  0  0  0  0
    2.1434   -1.2375    0.0000 C   0  0  0  0  0  0  0  0  0  0  0  0
    0.7145   -3.7125    0.0000 C   0  0  0  0  0  0  0  0  0  0  0  0
    0.0000   -4.1250    0.0000 C   0  0  0  0  0  0  0  0  0  0  0  0
   -0.7145   -3.7125    0.0000 C   0  0  0  0  0  0  0  0  0  0  0  0
   -1.4289   -4.1250    0.0000 F   0  0  0  0  0  0  0  0  0  0  0  0
   -2.1434   -3.7125    0.0000 C   0  0  0  0  0  0  0  0  0  0  0  0
   -2.8579   -4.1250    0.0000 C   0  0  0  0  0  0  0  0  0  0  0  0
   -3.5724   -5.3625    0.0000 C   0  0  0  0  0  0  0  0  0  0  0  0
   -3.5724   -6.1875    0.0000 C   0  0  0  0  0  0  0  0  0  0  0  0
  1  2  2  0  0  0  0
  2  3  1  0  0  0  0
  3  4  1  0  0  0  0
  2  5  1  0  0  0  0
  5  6  4  0  0  0  0
  6  7  4  0  0  0  0
  7  8  4  0  0  0  0
  8  9  1  0  0  0  0
  9 10  1  0  0  0  0
 10 11  1  0  0  0  0
 11 12  1  0  0  0  0
 12 13  1  0  0  0  0
 13 14  1  0  0  0  0
 14 15  2  0  0  0  0
 14 16  1  0  0  0  0
 16 17  4  0  0  0  0
 17 18  4  0  0  0  0
 18 19  1  0  0  0  0
 19 20  1  0  0  0  0
 20 21  4  0  0  0  0
 21 22  4  0  0  0  0
 22 23  4  0  0  0  0
 23 24  2  0  0  0  0
 23 25  4  0  0  0  0
 25 26  4  0  0  0  0
 26 27  4  0  0  0  0
 27 28  4  0  0  0  0
 28 29  4  0  0  0  0
 29 30  4  0  0  0  0
 20 30  4  0  0  0  0
 25 30  4  0  0  0  0
 18 31  4  0  0  0  0
 31 32  4  0  0  0  0
 32 33  4  0  0  0  0
 16 33  4  0  0  0  0
 33 34  1  0  0  0  0
 13 35  1  0  0  0  0
 35 36  1  0  0  0  0
 10 36  1  0  0  0  0
  8 37  4  0  0  0  0
 37 38  4  0  0  0  0
  5 38  4  0  0  0  0
M  STY  1   1 DAT
M  SAL   1  1  22
M  SDT   1 MRV_IMPLICIT_H                                        
M  SDD   1     0.5304   -0.4125    DR    ALL  0       0  
M  SED   1 IMPL_H1
M  END
>  <Molecule ChEMBL ID>
CHEMBL4097093

>  <Compound Key>
P4

>  <Document ChEMBL ID>
CHEMBL4052667

>  <HDAC1>
0

$$$$

  Mrv1808 03272221002D          

 39 42  0  0  0  0            999 V2000
   -2.8158   -4.6855    0.0000 N   0  0  0  0  0  0  0  0  0  0  0  0
   -2.8158   -3.8605    0.0000 C   0  0  0  0  0  0  0  0  0  0  0  0
   -3.5303   -3.4480    0.0000 C   0  0  0  0  0  0  0  0  0  0  0  0
   -3.5303   -2.6230    0.0000 C   0  0  0  0  0  0  0  0  0  0  0  0
   -2.8158   -2.2105    0.0000 C   0  0  0  0  0  0  0  0  0  0  0  0
   -2.1013   -2.6230    0.0000 C   0  0  0  0  0  0  0  0  0  0  0  0
   -2.1013   -3.4480    0.0000 C   0  0  0  0  0  0  0  0  0  0  0  0
   -1.3869   -3.8605    0.0000 N   0  0  0  0  0  0  0  0  0  0  0  0
   -0.6724   -3.4480    0.0000 C   0  0  0  0  0  0  0  0  0  0  0  0
   -0.6724   -2.6230    0.0000 O   0  0  0  0  0  0  0  0  0  0  0  0
    0.0421   -3.8605    0.0000 C   0  0  0  0  0  0  0  0  0  0  0  0
    0.7565   -3.4480    0.0000 C   0  0  0  0  0  0  0  0  0  0  0  0
    1.4710   -3.8605    0.0000 C   0  0  0  0  0  0  0  0  0  0  0  0
    1.4710   -4.6855    0.0000 C   0  0  0  0  0  0  0  0  0  0  0  0
    2.1855   -5.0980    0.0000 C   0  0  0  0  0  0  0  0  0  0  0  0
    2.1855   -5.9230    0.0000 O   0  0  0  0  0  0  0  0  0  0  0  0
    2.9000   -4.6855    0.0000 N   0  0  0  0  0  0  0  0  0  0  0  0
    3.6144   -5.0980    0.0000 C   0  0  0  0  0  0  0  0  0  0  0  0
    4.3289   -4.6855    0.0000 C   0  0  0  0  0  0  0  0  0  0  0  0
    5.0434   -5.0980    0.0000 N   0  0  0  0  0  0  0  0  0  0  0  0
    5.7578   -4.6855    0.0000 C   0  0  0  0  0  0  0  0  0  0  0  0
    6.5115   -5.0211    0.0000 N   0  0  0  0  0  0  0  0  0  0  0  0
    7.0635   -4.4080    0.0000 O   0  0  0  0  0  0  0  0  0  0  0  0
    6.6510   -3.6935    0.0000 N   0  0  0  0  0  0  0  0  0  0  0  0
    5.8441   -3.8651    0.0000 C   0  0  0  0  0  0  0  0  0  0  0  0
    5.2310   -3.3130    0.0000 C   0  0  0  0  0  0  0  0  0  0  0  0
    4.4464   -3.5680    0.0000 N   0  0  0  0  0  0  0  0  0  0  0  0
    3.8333   -3.0159    0.0000 O   0  0  0  0  0  0  0  0  0  0  0  0
    5.4025   -2.5061    0.0000 N   0  0  0  0  0  0  0  0  0  0  0  0
    6.1871   -2.2511    0.0000 C   0  0  0  0  0  0  0  0  0  0  0  0
    6.3587   -1.4441    0.0000 C   0  0  0  0  0  0  0  0  0  0  0  0
    7.1433   -1.1892    0.0000 C   0  0  0  0  0  0  0  0  0  0  0  0
    7.7564   -1.7412    0.0000 C   0  0  0  0  0  0  0  0  0  0  0  0
    8.5410   -1.4863    0.0000 F   0  0  0  0  0  0  0  0  0  0  0  0
    7.5848   -2.5482    0.0000 C   0  0  0  0  0  0  0  0  0  0  0  0
    8.1979   -3.1002    0.0000 Br  0  0  0  0  0  0  0  0  0  0  0  0
    6.8002   -2.8031    0.0000 C   0  0  0  0  0  0  0  0  0  0  0  0
    0.7565   -5.0980    0.0000 C   0  0  0  0  0  0  0  0  0  0  0  0
    0.0421   -4.6855    0.0000 N   0  0  0  0  0  0  0  0  0  0  0  0
  1  2  1  0  0  0  0
  2  3  4  0  0  0  0
  3  4  4  0  0  0  0
  4  5  4  0  0  0  0
  5  6  4  0  0  0  0
  6  7  4  0  0  0  0
  2  7  4  0  0  0  0
  7  8  1  0  0  0  0
  8  9  1  0  0  0  0
  9 10  2  0  0  0  0
  9 11  1  0  0  0  0
 11 12  4  0  0  0  0
 12 13  4  0  0  0  0
 13 14  4  0  0  0  0
 14 15  1  0  0  0  0
 15 16  2  0  0  0  0
 15 17  1  0  0  0  0
 17 18  1  0  0  0  0
 18 19  1  0  0  0  0
 19 20  1  0  0  0  0
 20 21  1  0  0  0  0
 21 22  4  0  0  0  0
 22 23  4  0  0  0  0
 23 24  4  0  0  0  0
 24 25  4  0  0  0  0
 21 25  4  0  0  0  0
 25 26  1  0  0  0  0
 26 27  2  0  0  0  0
 27 28  1  0  0  0  0
 26 29  1  0  0  0  0
 29 30  1  0  0  0  0
 30 31  4  0  0  0  0
 31 32  4  0  0  0  0
 32 33  4  0  0  0  0
 33 34  1  0  0  0  0
 33 35  4  0  0  0  0
 35 36  1  0  0  0  0
 35 37  4  0  0  0  0
 30 37  4  0  0  0  0
 14 38  4  0  0  0  0
 38 39  4  0  0  0  0
 11 39  4  0  0  0  0
M  END
>  <Molecule ChEMBL ID>
CHEMBL4277863

>  <Compound Key>
11

>  <Document ChEMBL ID>
CHEMBL4251732

>  <HDAC1>
0

$$$$

  Mrv1808 03272221002D          

 39 42  0  0  0  0            999 V2000
   -1.3869   -6.3355    0.0000 N   0  0  0  0  0  0  0  0  0  0  0  0
   -2.1013   -5.9230    0.0000 C   0  0  0  0  0  0  0  0  0  0  0  0
   -2.8158   -6.3355    0.0000 C   0  0  0  0  0  0  0  0  0  0  0  0
   -3.5303   -5.9230    0.0000 C   0  0  0  0  0  0  0  0  0  0  0  0
   -3.5303   -5.0980    0.0000 C   0  0  0  0  0  0  0  0  0  0  0  0
   -2.8158   -4.6855    0.0000 C   0  0  0  0  0  0  0  0  0  0  0  0
   -2.1013   -5.0980    0.0000 C   0  0  0  0  0  0  0  0  0  0  0  0
   -1.3869   -4.6855    0.0000 N   0  0  0  0  0  0  0  0  0  0  0  0
   -0.6724   -5.0980    0.0000 C   0  0  0  0  0  0  0  0  0  0  0  0
   -0.6724   -5.9230    0.0000 O   0  0  0  0  0  0  0  0  0  0  0  0
    0.0421   -4.6855    0.0000 C   0  0  0  0  0  0  0  0  0  0  0  0
    0.0421   -3.8605    0.0000 C   0  0  0  0  0  0  0  0  0  0  0  0
    0.7565   -3.4480    0.0000 C   0  0  0  0  0  0  0  0  0  0  0  0
    1.4710   -3.8605    0.0000 C   0  0  0  0  0  0  0  0  0  0  0  0
    1.4710   -4.6855    0.0000 C   0  0  0  0  0  0  0  0  0  0  0  0
    2.1855   -5.0980    0.0000 C   0  0  0  0  0  0  0  0  0  0  0  0
    2.1855   -5.9230    0.0000 O   0  0  0  0  0  0  0  0  0  0  0  0
    2.9000   -4.6855    0.0000 N   0  0  0  0  0  0  0  0  0  0  0  0
    3.6144   -5.0980    0.0000 C   0  0  0  0  0  0  0  0  0  0  0  0
    4.3289   -4.6855    0.0000 C   0  0  0  0  0  0  0  0  0  0  0  0
    5.0434   -5.0980    0.0000 N   0  0  0  0  0  0  0  0  0  0  0  0
    5.7578   -4.6855    0.0000 C   0  0  0  0  0  0  0  0  0  0  0  0
    6.5115   -5.0211    0.0000 N   0  0  0  0  0  0  0  0  0  0  0  0
    7.0635   -4.4080    0.0000 O   0  0  0  0  0  0  0  0  0  0  0  0
    6.6510   -3.6935    0.0000 N   0  0  0  0  0  0  0  0  0  0  0  0
    5.8441   -3.8651    0.0000 C   0  0  0  0  0  0  0  0  0  0  0  0
    5.2310   -3.3130    0.0000 C   0  0  0  0  0  0  0  0  0  0  0  0
    4.4464   -3.5680    0.0000 N   0  0  0  0  0  0  0  0  0  0  0  0
    3.8333   -3.0159    0.0000 O   0  0  0  0  0  0  0  0  0  0  0  0
    5.4025   -2.5061    0.0000 N   0  0  0  0  0  0  0  0  0  0  0  0
    6.1871   -2.2511    0.0000 C   0  0  0  0  0  0  0  0  0  0  0  0
    6.3587   -1.4441    0.0000 C   0  0  0  0  0  0  0  0  0  0  0  0
    7.1433   -1.1892    0.0000 C   0  0  0  0  0  0  0  0  0  0  0  0
    7.7564   -1.7412    0.0000 C   0  0  0  0  0  0  0  0  0  0  0  0
    8.5410   -1.4863    0.0000 F   0  0  0  0  0  0  0  0  0  0  0  0
    7.5848   -2.5482    0.0000 C   0  0  0  0  0  0  0  0  0  0  0  0
    8.1979   -3.1002    0.0000 Br  0  0  0  0  0  0  0  0  0  0  0  0
    6.8002   -2.8031    0.0000 C   0  0  0  0  0  0  0  0  0  0  0  0
    0.7565   -5.0980    0.0000 C   0  0  0  0  0  0  0  0  0  0  0  0
  1  2  1  0  0  0  0
  2  3  4  0  0  0  0
  3  4  4  0  0  0  0
  4  5  4  0  0  0  0
  5  6  4  0  0  0  0
  6  7  4  0  0  0  0
  2  7  4  0  0  0  0
  7  8  1  0  0  0  0
  8  9  1  0  0  0  0
  9 10  2  0  0  0  0
  9 11  1  0  0  0  0
 11 12  4  0  0  0  0
 12 13  4  0  0  0  0
 13 14  4  0  0  0  0
 14 15  4  0  0  0  0
 15 16  1  0  0  0  0
 16 17  2  0  0  0  0
 16 18  1  0  0  0  0
 18 19  1  0  0  0  0
 19 20  1  0  0  0  0
 20 21  1  0  0  0  0
 21 22  1  0  0  0  0
 22 23  4  0  0  0  0
 23 24  4  0  0  0  0
 24 25  4  0  0  0  0
 25 26  4  0  0  0  0
 22 26  4  0  0  0  0
 26 27  1  0  0  0  0
 27 28  2  0  0  0  0
 28 29  1  0  0  0  0
 27 30  1  0  0  0  0
 30 31  1  0  0  0  0
 31 32  4  0  0  0  0
 32 33  4  0  0  0  0
 33 34  4  0  0  0  0
 34 35  1  0  0  0  0
 34 36  4  0  0  0  0
 36 37  1  0  0  0  0
 36 38  4  0  0  0  0
 31 38  4  0  0  0  0
 15 39  4  0  0  0  0
 11 39  4  0  0  0  0
M  END
>  <Molecule ChEMBL ID>
CHEMBL4292998

>  <Compound Key>
13

>  <Document ChEMBL ID>
CHEMBL4251732

>  <HDAC1>
0

$$$$

  Mrv1808 03272221002D          

 35 37  0  0  1  0            999 V2000
   -2.1434   -6.1875    0.0000 C   0  0  0  0  0  0  0  0  0  0  0  0
   -2.1434   -5.3625    0.0000 C   0  0  0  0  0  0  0  0  0  0  0  0
   -2.8579   -4.9500    0.0000 O   0  0  0  0  0  0  0  0  0  0  0  0
   -2.8579   -4.1250    0.0000 C   0  0  0  0  0  0  0  0  0  0  0  0
   -2.1434   -3.7125    0.0000 C   0  0  0  0  0  0  0  0  0  0  0  0
   -2.1434   -2.8875    0.0000 C   0  0  0  0  0  0  0  0  0  0  0  0
   -1.4289   -2.4750    0.0000 N   0  0  0  0  0  0  0  0  0  0  0  0
   -0.7145   -2.8875    0.0000 C   0  0  0  0  0  0  0  0  0  0  0  0
   -0.7145   -3.7125    0.0000 O   0  0  0  0  0  0  0  0  0  0  0  0
    0.0000   -2.4750    0.0000 C   0  0  0  0  0  0  0  0  0  0  0  0
    0.7145   -2.8875    0.0000 C   0  0  0  0  0  0  0  0  0  0  0  0
    1.4289   -2.4750    0.0000 C   0  0  0  0  0  0  0  0  0  0  0  0
    2.1434   -2.8875    0.0000 C   0  0  0  0  0  0  0  0  0  0  0  0
    2.8579   -2.4750    0.0000 N   0  0  0  0  0  0  0  0  0  0  0  0
    3.5724   -2.8875    0.0000 C   0  0  0  0  0  0  0  0  0  0  0  0
    3.5724   -3.7125    0.0000 O   0  0  0  0  0  0  0  0  0  0  0  0
    4.2868   -2.4750    0.0000 C   0  0  2  0  0  0  0  0  0  0  0  0
    4.2868   -1.6500    0.0000 N   0  0  0  0  0  0  0  0  0  0  0  0
    5.0013   -2.8875    0.0000 C   0  0  0  0  0  0  0  0  0  0  0  0
    5.7158   -2.4750    0.0000 C   0  0  0  0  0  0  0  0  0  0  0  0
    5.7158   -1.6500    0.0000 C   0  0  0  0  0  0  0  0  0  0  0  0
    6.4302   -1.2375    0.0000 C   0  0  0  0  0  0  0  0  0  0  0  0
    7.1447   -1.6500    0.0000 C   0  0  0  0  0  0  0  0  0  0  0  0
    7.1447   -2.4750    0.0000 C   0  0  0  0  0  0  0  0  0  0  0  0
    6.4302   -2.8875    0.0000 C   0  0  0  0  0  0  0  0  0  0  0  0
   -2.8579   -2.4750    0.0000 C   0  0  0  0  0  0  0  0  0  0  0  0
   -3.5724   -2.8875    0.0000 C   0  0  0  0  0  0  0  0  0  0  0  0
   -3.5724   -3.7125    0.0000 C   0  0  0  0  0  0  0  0  0  0  0  0
   -4.2868   -4.1250    0.0000 O   0  0  0  0  0  0  0  0  0  0  0  0
   -5.0013   -3.7125    0.0000 C   0  0  0  0  0  0  0  0  0  0  0  0
   -5.0013   -2.8875    0.0000 C   0  0  0  0  0  0  0  0  0  0  0  0
   -5.7158   -2.4750    0.0000 N   0  3  0  0  0  0  0  0  0  0  0  0
   -6.4302   -2.8875    0.0000 O   0  0  0  0  0  0  0  0  0  0  0  0
   -5.7158   -1.6500    0.0000 O   0  5  0  0  0  0  0  0  0  0  0  0
   -4.2868   -2.4750    0.0000 C   0  0  0  0  0  0  0  0  0  0  0  0
  1  2  1  0  0  0  0
  2  3  1  0  0  0  0
  3  4  1  0  0  0  0
  4  5  4  0  0  0  0
  5  6  4  0  0  0  0
  6  7  1  0  0  0  0
  7  8  1  0  0  0  0
  8  9  2  0  0  0  0
  8 10  1  0  0  0  0
 10 11  1  0  0  0  0
 11 12  1  0  0  0  0
 12 13  1  0  0  0  0
 13 14  1  0  0  0  0
 14 15  1  0  0  0  0
 15 16  2  0  0  0  0
 17 15  1  0  0  0  0
 17 18  1  6  0  0  0
 17 19  1  0  0  0  0
 19 20  1  0  0  0  0
 20 21  4  0  0  0  0
 21 22  4  0  0  0  0
 22 23  4  0  0  0  0
 23 24  4  0  0  0  0
 24 25  4  0  0  0  0
 20 25  4  0  0  0  0
  6 26  4  0  0  0  0
 26 27  4  0  0  0  0
 27 28  4  0  0  0  0
  4 28  4  0  0  0  0
 28 29  1  0  0  0  0
 29 30  1  0  0  0  0
 30 31  1  0  0  0  0
 31 32  1  0  0  0  0
 32 33  2  0  0  0  0
 32 34  1  0  0  0  0
 31 35  2  0  0  0  0
 27 35  1  0  0  0  0
M  CHG  2  32   1  34  -1
M  END
>  <Molecule ChEMBL ID>
CHEMBL4103290

>  <Compound Key>
16a

>  <Document ChEMBL ID>
CHEMBL4052685

>  <HDAC1>
0

$$$$

  Mrv1808 03272221002D          

 42 45  0  0  0  0            999 V2000
    8.2590    5.3374    0.0000 O   0  0  0  0  0  0  0  0  0  0  0  0
    8.2590    4.5124    0.0000 C   0  0  0  0  0  0  0  0  0  0  0  0
    7.5446    4.0999    0.0000 C   0  0  0  0  0  0  0  0  0  0  0  0
    6.8301    4.5124    0.0000 C   0  0  0  0  0  0  0  0  0  0  0  0
    6.1156    4.0999    0.0000 C   0  0  0  0  0  0  0  0  0  0  0  0
    5.4012    4.5124    0.0000 C   0  0  0  0  0  0  0  0  0  0  0  0
    4.6867    4.0999    0.0000 N   0  0  0  0  0  0  0  0  0  0  0  0
    4.6004    3.2794    0.0000 C   0  0  0  0  0  0  0  0  0  0  0  0
    3.7935    3.1078    0.0000 C   0  0  0  0  0  0  0  0  0  0  0  0
    3.4579    2.3542    0.0000 C   0  0  0  0  0  0  0  0  0  0  0  0
    3.9428    1.6867    0.0000 C   0  0  0  0  0  0  0  0  0  0  0  0
    3.6073    0.9331    0.0000 C   0  0  0  0  0  0  0  0  0  0  0  0
    2.7868    0.8468    0.0000 C   0  0  0  0  0  0  0  0  0  0  0  0
    2.4512    0.0931    0.0000 C   0  0  0  0  0  0  0  0  0  0  0  0
    2.9362   -0.5743    0.0000 O   0  0  0  0  0  0  0  0  0  0  0  0
    1.6308    0.0069    0.0000 N   0  0  0  0  0  0  0  0  0  0  0  0
    1.2952   -0.7468    0.0000 C   0  0  0  0  0  0  0  0  0  0  0  0
    0.4747   -0.8330    0.0000 C   0  0  0  0  0  0  0  0  0  0  0  0
    0.1392   -1.5867    0.0000 N   0  0  0  0  0  0  0  0  0  0  0  0
   -0.6813   -1.6729    0.0000 C   0  0  0  0  0  0  0  0  0  0  0  0
   -1.0938   -2.3874    0.0000 N   0  0  0  0  0  0  0  0  0  0  0  0
   -1.9008   -2.2159    0.0000 O   0  0  0  0  0  0  0  0  0  0  0  0
   -1.9870   -1.3954    0.0000 N   0  0  0  0  0  0  0  0  0  0  0  0
   -1.2333   -1.0598    0.0000 C   0  0  0  0  0  0  0  0  0  0  0  0
   -1.0618   -0.2528    0.0000 C   0  0  0  0  0  0  0  0  0  0  0  0
   -1.6749    0.2992    0.0000 N   0  0  0  0  0  0  0  0  0  0  0  0
   -1.5034    1.1062    0.0000 O   0  0  0  0  0  0  0  0  0  0  0  0
   -0.2772    0.0021    0.0000 N   0  0  0  0  0  0  0  0  0  0  0  0
   -0.1057    0.8091    0.0000 C   0  0  0  0  0  0  0  0  0  0  0  0
   -0.7188    1.3611    0.0000 C   0  0  0  0  0  0  0  0  0  0  0  0
   -0.5472    2.1681    0.0000 C   0  0  0  0  0  0  0  0  0  0  0  0
    0.2374    2.4230    0.0000 C   0  0  0  0  0  0  0  0  0  0  0  0
    0.4089    3.2300    0.0000 F   0  0  0  0  0  0  0  0  0  0  0  0
    0.8505    1.8710    0.0000 C   0  0  0  0  0  0  0  0  0  0  0  0
    1.6351    2.1259    0.0000 Br  0  0  0  0  0  0  0  0  0  0  0  0
    0.6789    1.0640    0.0000 C   0  0  0  0  0  0  0  0  0  0  0  0
    2.3019    1.5143    0.0000 C   0  0  0  0  0  0  0  0  0  0  0  0
    2.6374    2.2679    0.0000 C   0  0  0  0  0  0  0  0  0  0  0  0
    3.3810    3.8223    0.0000 N   0  0  0  0  0  0  0  0  0  0  0  0
    3.9330    4.4354    0.0000 N   0  0  0  0  0  0  0  0  0  0  0  0
    8.9735    4.0999    0.0000 N   0  0  0  0  0  0  0  0  0  0  0  0
    9.6880    4.5124    0.0000 O   0  0  0  0  0  0  0  0  0  0  0  0
  1  2  2  0  0  0  0
  2  3  1  0  0  0  0
  3  4  1  0  0  0  0
  4  5  1  0  0  0  0
  5  6  1  0  0  0  0
  6  7  1  0  0  0  0
  7  8  4  0  0  0  0
  8  9  4  0  0  0  0
  9 10  1  0  0  0  0
 10 11  4  0  0  0  0
 11 12  4  0  0  0  0
 12 13  4  0  0  0  0
 13 14  1  0  0  0  0
 14 15  2  0  0  0  0
 14 16  1  0  0  0  0
 16 17  1  0  0  0  0
 17 18  1  0  0  0  0
 18 19  1  0  0  0  0
 19 20  1  0  0  0  0
 20 21  4  0  0  0  0
 21 22  4  0  0  0  0
 22 23  4  0  0  0  0
 23 24  4  0  0  0  0
 20 24  4  0  0  0  0
 24 25  1  0  0  0  0
 25 26  2  0  0  0  0
 26 27  1  0  0  0  0
 25 28  1  0  0  0  0
 28 29  1  0  0  0  0
 29 30  4  0  0  0  0
 30 31  4  0  0  0  0
 31 32  4  0  0  0  0
 32 33  1  0  0  0  0
 32 34  4  0  0  0  0
 34 35  1  0  0  0  0
 34 36  4  0  0  0  0
 29 36  4  0  0  0  0
 13 37  4  0  0  0  0
 37 38  4  0  0  0  0
 10 38  4  0  0  0  0
  9 39  4  0  0  0  0
 39 40  4  0  0  0  0
  7 40  4  0  0  0  0
  2 41  1  0  0  0  0
 41 42  1  0  0  0  0
M  END
>  <Molecule ChEMBL ID>
CHEMBL4294936

>  <Compound Key>
17

>  <Document ChEMBL ID>
CHEMBL4251732

>  <HDAC1>
0

$$$$

  Mrv1808 03272221002D          

 39 43  0  0  0  0            999 V2000
    7.8592   -3.7125    0.0000 O   0  0  0  0  0  0  0  0  0  0  0  0
    8.5737   -4.1250    0.0000 C   0  0  0  0  0  0  0  0  0  0  0  0
    8.5737   -4.9500    0.0000 C   0  0  0  0  0  0  0  0  0  0  0  0
    7.8592   -5.3625    0.0000 C   0  0  0  0  0  0  0  0  0  0  0  0
    7.8592   -6.1875    0.0000 C   0  0  0  0  0  0  0  0  0  0  0  0
    7.1447   -6.6000    0.0000 C   0  0  0  0  0  0  0  0  0  0  0  0
    6.4302   -6.1875    0.0000 C   0  0  0  0  0  0  0  0  0  0  0  0
    5.7158   -6.6000    0.0000 C   0  0  0  0  0  0  0  0  0  0  0  0
    5.0013   -6.1875    0.0000 N   0  0  0  0  0  0  0  0  0  0  0  0
    4.2868   -6.6000    0.0000 C   0  0  0  0  0  0  0  0  0  0  0  0
    3.5724   -6.1875    0.0000 C   0  0  0  0  0  0  0  0  0  0  0  0
    3.5724   -5.3625    0.0000 N   0  0  0  0  0  0  0  0  0  0  0  0
    2.8579   -4.9500    0.0000 C   0  0  0  0  0  0  0  0  0  0  0  0
    2.1434   -5.3625    0.0000 O   0  0  0  0  0  0  0  0  0  0  0  0
    2.8579   -4.1250    0.0000 C   0  0  0  0  0  0  0  0  0  0  0  0
    2.1434   -3.7125    0.0000 C   0  0  0  0  0  0  0  0  0  0  0  0
    2.1434   -2.8875    0.0000 C   0  0  0  0  0  0  0  0  0  0  0  0
    1.4289   -2.4750    0.0000 C   0  0  0  0  0  0  0  0  0  0  0  0
    1.4289   -1.6500    0.0000 C   0  0  0  0  0  0  0  0  0  0  0  0
    0.7145   -1.2375    0.0000 N   0  0  0  0  0  0  0  0  0  0  0  0
    0.7145   -0.4125    0.0000 N   0  0  0  0  0  0  0  0  0  0  0  0
    1.4289    0.0000    0.0000 C   0  0  0  0  0  0  0  0  0  0  0  0
    1.4289    0.8250    0.0000 O   0  0  0  0  0  0  0  0  0  0  0  0
    2.1434   -0.4125    0.0000 C   0  0  0  0  0  0  0  0  0  0  0  0
    2.8579    0.0000    0.0000 C   0  0  0  0  0  0  0  0  0  0  0  0
    3.5724   -0.4125    0.0000 C   0  0  0  0  0  0  0  0  0  0  0  0
    3.5724   -1.2375    0.0000 C   0  0  0  0  0  0  0  0  0  0  0  0
    2.8579   -1.6500    0.0000 C   0  0  0  0  0  0  0  0  0  0  0  0
    2.1434   -1.2375    0.0000 C   0  0  0  0  0  0  0  0  0  0  0  0
    2.8579   -2.4750    0.0000 C   0  0  0  0  0  0  0  0  0  0  0  0
    3.5724   -2.8875    0.0000 C   0  0  0  0  0  0  0  0  0  0  0  0
    3.5724   -3.7125    0.0000 C   0  0  0  0  0  0  0  0  0  0  0  0
    4.2868   -4.1250    0.0000 F   0  0  0  0  0  0  0  0  0  0  0  0
    4.2868   -4.9500    0.0000 C   0  0  0  0  0  0  0  0  0  0  0  0
    5.0013   -5.3625    0.0000 C   0  0  0  0  0  0  0  0  0  0  0  0
    6.4302   -5.3625    0.0000 C   0  0  0  0  0  0  0  0  0  0  0  0
    7.1447   -4.9500    0.0000 C   0  0  0  0  0  0  0  0  0  0  0  0
    9.2881   -3.7125    0.0000 N   0  0  0  0  0  0  0  0  0  0  0  0
   10.0026   -4.1250    0.0000 O   0  0  0  0  0  0  0  0  0  0  0  0
  1  2  2  0  0  0  0
  2  3  1  0  0  0  0
  3  4  1  0  0  0  0
  4  5  4  0  0  0  0
  5  6  4  0  0  0  0
  6  7  4  0  0  0  0
  7  8  1  0  0  0  0
  8  9  1  0  0  0  0
  9 10  1  0  0  0  0
 10 11  1  0  0  0  0
 11 12  1  0  0  0  0
 12 13  1  0  0  0  0
 13 14  2  0  0  0  0
 13 15  1  0  0  0  0
 15 16  4  0  0  0  0
 16 17  4  0  0  0  0
 17 18  1  0  0  0  0
 18 19  1  0  0  0  0
 19 20  4  0  0  0  0
 20 21  4  0  0  0  0
 21 22  4  0  0  0  0
 22 23  2  0  0  0  0
 22 24  4  0  0  0  0
 24 25  4  0  0  0  0
 25 26  4  0  0  0  0
 26 27  4  0  0  0  0
 27 28  4  0  0  0  0
 28 29  4  0  0  0  0
 19 29  4  0  0  0  0
 24 29  4  0  0  0  0
 17 30  4  0  0  0  0
 30 31  4  0  0  0  0
 31 32  4  0  0  0  0
 15 32  4  0  0  0  0
 32 33  1  0  0  0  0
 12 34  1  0  0  0  0
 34 35  1  0  0  0  0
  9 35  1  0  0  0  0
  7 36  4  0  0  0  0
 36 37  4  0  0  0  0
  4 37  4  0  0  0  0
  2 38  1  0  0  0  0
 38 39  1  0  0  0  0
M  STY  1   1 DAT
M  SAL   1  1  21
M  SDT   1 MRV_IMPLICIT_H                                        
M  SDD   1     0.5304   -0.4125    DR    ALL  0       0  
M  SED   1 IMPL_H1
M  END
>  <Molecule ChEMBL ID>
CHEMBL4075511

>  <Compound Key>
P3

>  <Document ChEMBL ID>
CHEMBL4052667

>  <HDAC1>
0

$$$$

  Mrv1808 03272221002D          

 28 31  0  0  0  0            999 V2000
   -1.4289    8.0036    0.0000 N   0  0  0  0  0  0  0  0  0  0  0  0
   -0.7145    8.4161    0.0000 C   0  0  0  0  0  0  0  0  0  0  0  0
   -0.7145    9.2411    0.0000 C   0  0  0  0  0  0  0  0  0  0  0  0
   -0.0000    9.6536    0.0000 C   0  0  0  0  0  0  0  0  0  0  0  0
    0.7145    9.2411    0.0000 C   0  0  0  0  0  0  0  0  0  0  0  0
    0.7145    8.4161    0.0000 C   0  0  0  0  0  0  0  0  0  0  0  0
   -0.0000    8.0036    0.0000 C   0  0  0  0  0  0  0  0  0  0  0  0
   -0.0000    7.1786    0.0000 N   0  0  0  0  0  0  0  0  0  0  0  0
    0.7145    6.7661    0.0000 C   0  0  0  0  0  0  0  0  0  0  0  0
    1.4289    7.1786    0.0000 O   0  0  0  0  0  0  0  0  0  0  0  0
    0.7145    5.9411    0.0000 C   0  0  0  0  0  0  0  0  0  0  0  0
    1.4289    5.5286    0.0000 C   0  0  0  0  0  0  0  0  0  0  0  0
    1.4289    4.7036    0.0000 C   0  0  0  0  0  0  0  0  0  0  0  0
    0.7145    4.2911    0.0000 C   0  0  0  0  0  0  0  0  0  0  0  0
    0.7145    3.4661    0.0000 C   0  0  0  0  0  0  0  0  0  0  0  0
    1.3819    2.9812    0.0000 C   0  0  0  0  0  0  0  0  0  0  0  0
    1.1270    2.1965    0.0000 N   0  0  0  0  0  0  0  0  0  0  0  0
    1.6119    1.5291    0.0000 C   0  0  0  0  0  0  0  0  0  0  0  0
    2.4324    1.6153    0.0000 C   0  0  0  0  0  0  0  0  0  0  0  0
    2.9173    0.9479    0.0000 C   0  0  0  0  0  0  0  0  0  0  0  0
    3.7423    0.9479    0.0000 C   0  0  0  0  0  0  0  0  0  0  0  0
    3.9972    0.1633    0.0000 C   0  0  0  0  0  0  0  0  0  0  0  0
    3.3298   -0.3217    0.0000 S   0  0  0  0  0  0  0  0  0  0  0  0
    2.6624    0.1633    0.0000 C   0  0  0  0  0  0  0  0  0  0  0  0
    0.3020    2.1965    0.0000 N   0  0  0  0  0  0  0  0  0  0  0  0
    0.0470    2.9812    0.0000 N   0  0  0  0  0  0  0  0  0  0  0  0
    0.0000    4.7036    0.0000 C   0  0  0  0  0  0  0  0  0  0  0  0
   -0.0000    5.5286    0.0000 C   0  0  0  0  0  0  0  0  0  0  0  0
  1  2  1  0  0  0  0
  2  3  4  0  0  0  0
  3  4  4  0  0  0  0
  4  5  4  0  0  0  0
  5  6  4  0  0  0  0
  6  7  4  0  0  0  0
  2  7  4  0  0  0  0
  7  8  1  0  0  0  0
  8  9  1  0  0  0  0
  9 10  2  0  0  0  0
  9 11  1  0  0  0  0
 11 12  4  0  0  0  0
 12 13  4  0  0  0  0
 13 14  4  0  0  0  0
 14 15  1  0  0  0  0
 15 16  4  0  0  0  0
 16 17  4  0  0  0  0
 17 18  1  0  0  0  0
 18 19  1  0  0  0  0
 19 20  1  0  0  0  0
 20 21  4  0  0  0  0
 21 22  4  0  0  0  0
 22 23  4  0  0  0  0
 23 24  4  0  0  0  0
 20 24  4  0  0  0  0
 17 25  4  0  0  0  0
 25 26  4  0  0  0  0
 15 26  4  0  0  0  0
 14 27  4  0  0  0  0
 27 28  4  0  0  0  0
 11 28  4  0  0  0  0
M  END
>  <Molecule ChEMBL ID>
CHEMBL3622374

>  <Compound Key>
T247

>  <Document ChEMBL ID>
CHEMBL3769398

>  <HDAC1>
0

$$$$

  Mrv1808 03272221002D          

 38 41  0  0  0  0            999 V2000
   -1.8112   -5.3341    0.0000 N   0  0  0  0  0  0  0  0  0  0  0  0
   -2.2961   -4.6667    0.0000 C   0  0  0  0  0  0  0  0  0  0  0  0
   -3.1166   -4.7529    0.0000 C   0  0  0  0  0  0  0  0  0  0  0  0
   -3.6015   -4.0855    0.0000 C   0  0  0  0  0  0  0  0  0  0  0  0
   -3.2660   -3.3318    0.0000 C   0  0  0  0  0  0  0  0  0  0  0  0
   -2.4455   -3.2456    0.0000 C   0  0  0  0  0  0  0  0  0  0  0  0
   -1.9606   -3.9130    0.0000 C   0  0  0  0  0  0  0  0  0  0  0  0
   -1.1401   -3.8268    0.0000 N   0  0  0  0  0  0  0  0  0  0  0  0
   -0.6552   -4.4942    0.0000 C   0  0  0  0  0  0  0  0  0  0  0  0
   -0.9907   -5.2479    0.0000 O   0  0  0  0  0  0  0  0  0  0  0  0
    0.1653   -4.4080    0.0000 C   0  0  0  0  0  0  0  0  0  0  0  0
    0.5778   -3.6935    0.0000 C   0  0  0  0  0  0  0  0  0  0  0  0
    1.3848   -3.8651    0.0000 C   0  0  0  0  0  0  0  0  0  0  0  0
    1.4710   -4.6855    0.0000 C   0  0  0  0  0  0  0  0  0  0  0  0
    2.1855   -5.0980    0.0000 C   0  0  0  0  0  0  0  0  0  0  0  0
    2.1855   -5.9230    0.0000 O   0  0  0  0  0  0  0  0  0  0  0  0
    2.9000   -4.6855    0.0000 N   0  0  0  0  0  0  0  0  0  0  0  0
    3.6144   -5.0980    0.0000 C   0  0  0  0  0  0  0  0  0  0  0  0
    4.3289   -4.6855    0.0000 C   0  0  0  0  0  0  0  0  0  0  0  0
    5.0434   -5.0980    0.0000 N   0  0  0  0  0  0  0  0  0  0  0  0
    5.7578   -4.6855    0.0000 C   0  0  0  0  0  0  0  0  0  0  0  0
    6.5115   -5.0211    0.0000 N   0  0  0  0  0  0  0  0  0  0  0  0
    7.0635   -4.4080    0.0000 O   0  0  0  0  0  0  0  0  0  0  0  0
    6.6510   -3.6935    0.0000 N   0  0  0  0  0  0  0  0  0  0  0  0
    5.8441   -3.8651    0.0000 C   0  0  0  0  0  0  0  0  0  0  0  0
    5.2310   -3.3130    0.0000 C   0  0  0  0  0  0  0  0  0  0  0  0
    4.4464   -3.5680    0.0000 N   0  0  0  0  0  0  0  0  0  0  0  0
    3.8333   -3.0159    0.0000 O   0  0  0  0  0  0  0  0  0  0  0  0
    5.4025   -2.5061    0.0000 N   0  0  0  0  0  0  0  0  0  0  0  0
    6.1871   -2.2511    0.0000 C   0  0  0  0  0  0  0  0  0  0  0  0
    6.3587   -1.4441    0.0000 C   0  0  0  0  0  0  0  0  0  0  0  0
    7.1433   -1.1892    0.0000 C   0  0  0  0  0  0  0  0  0  0  0  0
    7.7564   -1.7412    0.0000 C   0  0  0  0  0  0  0  0  0  0  0  0
    8.5410   -1.4863    0.0000 F   0  0  0  0  0  0  0  0  0  0  0  0
    7.5848   -2.5482    0.0000 C   0  0  0  0  0  0  0  0  0  0  0  0
    8.1979   -3.1002    0.0000 Br  0  0  0  0  0  0  0  0  0  0  0  0
    6.8002   -2.8031    0.0000 C   0  0  0  0  0  0  0  0  0  0  0  0
    0.7173   -5.0211    0.0000 S   0  0  0  0  0  0  0  0  0  0  0  0
  1  2  1  0  0  0  0
  2  3  4  0  0  0  0
  3  4  4  0  0  0  0
  4  5  4  0  0  0  0
  5  6  4  0  0  0  0
  6  7  4  0  0  0  0
  2  7  4  0  0  0  0
  7  8  1  0  0  0  0
  8  9  1  0  0  0  0
  9 10  2  0  0  0  0
  9 11  1  0  0  0  0
 11 12  4  0  0  0  0
 12 13  4  0  0  0  0
 13 14  4  0  0  0  0
 14 15  1  0  0  0  0
 15 16  2  0  0  0  0
 15 17  1  0  0  0  0
 17 18  1  0  0  0  0
 18 19  1  0  0  0  0
 19 20  1  0  0  0  0
 20 21  1  0  0  0  0
 21 22  4  0  0  0  0
 22 23  4  0  0  0  0
 23 24  4  0  0  0  0
 24 25  4  0  0  0  0
 21 25  4  0  0  0  0
 25 26  1  0  0  0  0
 26 27  2  0  0  0  0
 27 28  1  0  0  0  0
 26 29  1  0  0  0  0
 29 30  1  0  0  0  0
 30 31  4  0  0  0  0
 31 32  4  0  0  0  0
 32 33  4  0  0  0  0
 33 34  1  0  0  0  0
 33 35  4  0  0  0  0
 35 36  1  0  0  0  0
 35 37  4  0  0  0  0
 30 37  4  0  0  0  0
 14 38  4  0  0  0  0
 11 38  4  0  0  0  0
M  END
>  <Molecule ChEMBL ID>
CHEMBL4288519

>  <Compound Key>
12

>  <Document ChEMBL ID>
CHEMBL4251732

>  <HDAC1>
0

$$$$

  Mrv1808 03272221002D          

 41 43  0  0  1  0            999 V2000
    9.2881    2.0625    0.0000 C   0  0  0  0  0  0  0  0  0  0  0  0
    9.2881    2.8875    0.0000 C   0  0  0  0  0  0  0  0  0  0  0  0
   10.0026    3.3000    0.0000 C   0  0  0  0  0  0  0  0  0  0  0  0
   10.7171    2.8875    0.0000 C   0  0  0  0  0  0  0  0  0  0  0  0
   11.4315    3.3000    0.0000 C   0  0  0  0  0  0  0  0  0  0  0  0
   12.1460    2.8875    0.0000 C   0  0  0  0  0  0  0  0  0  0  0  0
   12.8605    3.3000    0.0000 C   0  0  0  0  0  0  0  0  0  0  0  0
   13.5749    2.8875    0.0000 C   0  0  0  0  0  0  0  0  0  0  0  0
   13.5749    2.0625    0.0000 O   0  0  0  0  0  0  0  0  0  0  0  0
   14.2894    3.3000    0.0000 S   0  0  0  0  0  0  0  0  0  0  0  0
   15.0039    2.8875    0.0000 C   0  0  0  0  0  0  0  0  0  0  0  0
   15.7184    3.3000    0.0000 C   0  0  0  0  0  0  0  0  0  0  0  0
   15.7184    4.1250    0.0000 C   0  0  0  0  0  0  0  0  0  0  0  0
   16.4328    4.5375    0.0000 C   0  0  0  0  0  0  0  0  0  0  0  0
   16.4328    5.3625    0.0000 C   0  0  2  0  0  0  0  0  0  0  0  0
   15.7184    5.7750    0.0000 C   0  0  0  0  0  0  0  0  0  0  0  0
   15.7184    6.6000    0.0000 C   0  0  0  0  0  0  0  0  0  0  0  0
   15.0039    7.0125    0.0000 O   0  0  0  0  0  0  0  0  0  0  0  0
   16.4328    7.0125    0.0000 N   0  0  0  0  0  0  0  0  0  0  0  0
   16.4328    7.8375    0.0000 C   0  0  0  0  0  0  0  0  0  0  0  0
   17.1473    8.2500    0.0000 C   0  0  0  0  0  0  0  0  0  0  0  0
   17.8618    7.8375    0.0000 N   0  0  0  0  0  0  0  0  0  0  0  0
   18.5762    8.2500    0.0000 C   0  0  0  0  0  0  0  0  0  0  0  0
   18.2272    9.0346    0.0000 C   0  0  0  0  0  0  0  0  0  0  0  0
   17.4022    9.0346    0.0000 S   0  0  0  0  0  0  0  0  0  0  0  0
   19.2907    7.8375    0.0000 C   0  0  0  0  0  0  0  0  0  0  0  0
   19.2907    7.0125    0.0000 N   0  0  0  0  0  0  0  0  0  0  0  0
   20.0052    6.6000    0.0000 C   0  0  1  0  0  0  0  0  0  0  0  0
   20.7898    6.3449    0.0000 C   0  0  0  0  0  0  0  0  0  0  0  0
   20.5102    7.2946    0.0000 C   0  0  0  0  0  0  0  0  0  0  0  0
   20.0977    8.0090    0.0000 S   0  0  0  0  0  0  0  0  0  0  0  0
   20.0052    5.7750    0.0000 C   0  0  0  0  0  0  0  0  0  0  0  0
   20.7197    5.3625    0.0000 O   0  0  0  0  0  0  0  0  0  0  0  0
   19.2907    5.3625    0.0000 N   0  0  0  0  0  0  0  0  0  0  0  0
   18.5762    5.7750    0.0000 C   0  0  1  0  0  0  0  0  0  0  0  0
   18.5762    4.9500    0.0000 C   0  0  0  0  0  0  0  0  0  0  0  0
   17.8618    4.5375    0.0000 C   0  0  0  0  0  0  0  0  0  0  0  0
   19.2907    4.5375    0.0000 C   0  0  0  0  0  0  0  0  0  0  0  0
   17.8618    5.3625    0.0000 C   0  0  0  0  0  0  0  0  0  0  0  0
   17.3769    4.6951    0.0000 O   0  0  0  0  0  0  0  0  0  0  0  0
   17.1473    5.7750    0.0000 O   0  0  0  0  0  0  0  0  0  0  0  0
  1  2  1  0  0  0  0
  2  3  1  0  0  0  0
  3  4  1  0  0  0  0
  4  5  1  0  0  0  0
  5  6  1  0  0  0  0
  6  7  1  0  0  0  0
  7  8  1  0  0  0  0
  8  9  2  0  0  0  0
  8 10  1  0  0  0  0
 10 11  1  0  0  0  0
 11 12  1  0  0  0  0
 12 13  1  0  0  0  0
 13 14  2  0  0  0  0
 15 14  1  6  0  0  0
 15 16  1  0  0  0  0
 16 17  1  0  0  0  0
 17 18  2  0  0  0  0
 17 19  1  0  0  0  0
 19 20  1  0  0  0  0
 20 21  1  0  0  0  0
 21 22  4  0  0  0  0
 22 23  4  0  0  0  0
 23 24  4  0  0  0  0
 24 25  4  0  0  0  0
 21 25  4  0  0  0  0
 23 26  1  0  0  0  0
 26 27  2  0  0  0  0
 27 28  1  0  0  0  0
 28 29  1  6  0  0  0
 28 30  1  0  0  0  0
 30 31  1  0  0  0  0
 26 31  1  0  0  0  0
 28 32  1  0  0  0  0
 32 33  2  0  0  0  0
 32 34  1  0  0  0  0
 34 35  1  0  0  0  0
 35 36  1  6  0  0  0
 36 37  1  0  0  0  0
 36 38  1  0  0  0  0
 35 39  1  0  0  0  0
 39 40  2  0  0  0  0
 39 41  1  0  0  0  0
 15 41  1  0  0  0  0
M  END
>  <Molecule ChEMBL ID>
CHEMBL1173445

>  <Compound Key>
largazole

>  <Document ChEMBL ID>
CHEMBL3769398

>  <HDAC1>
0

$$$$

  Mrv1808 03272221002D          

 30 33  0  0  0  0            999 V2000
    5.4957    4.8229    0.0000 C   0  0  0  0  0  0  0  0  0  0  0  0
    4.7812    4.4104    0.0000 O   0  0  0  0  0  0  0  0  0  0  0  0
    4.7812    3.5854    0.0000 C   0  0  0  0  0  0  0  0  0  0  0  0
    5.4957    3.1729    0.0000 C   0  0  0  0  0  0  0  0  0  0  0  0
    5.4957    2.3479    0.0000 C   0  0  0  0  0  0  0  0  0  0  0  0
    4.7812    1.9354    0.0000 C   0  0  0  0  0  0  0  0  0  0  0  0
    4.0668    2.3479    0.0000 C   0  0  0  0  0  0  0  0  0  0  0  0
    3.3523    1.9354    0.0000 C   0  0  0  0  0  0  0  0  0  0  0  0
    3.3523    1.1104    0.0000 C   0  0  0  0  0  0  0  0  0  0  0  0
    2.6378    0.6979    0.0000 C   0  0  0  0  0  0  0  0  0  0  0  0
    1.9233    1.1104    0.0000 C   0  0  0  0  0  0  0  0  0  0  0  0
    1.1387    0.8555    0.0000 C   0  0  0  0  0  0  0  0  0  0  0  0
    0.8838    0.0709    0.0000 N   0  0  0  0  0  0  0  0  0  0  0  0
    1.4358   -0.5422    0.0000 C   0  0  0  0  0  0  0  0  0  0  0  0
    2.2428   -0.3707    0.0000 O   0  0  0  0  0  0  0  0  0  0  0  0
    1.1809   -1.3268    0.0000 C   0  0  0  0  0  0  0  0  0  0  0  0
    1.7329   -1.9399    0.0000 C   0  0  0  0  0  0  0  0  0  0  0  0
    1.4780   -2.7246    0.0000 C   0  0  0  0  0  0  0  0  0  0  0  0
    0.6710   -2.8961    0.0000 C   0  0  0  0  0  0  0  0  0  0  0  0
    0.4161   -3.6807    0.0000 C   0  0  0  0  0  0  0  0  0  0  0  0
    0.9681   -4.2938    0.0000 O   0  0  0  0  0  0  0  0  0  0  0  0
   -0.3909   -3.8522    0.0000 N   0  0  0  0  0  0  0  0  0  0  0  0
   -0.6459   -4.6368    0.0000 O   0  0  0  0  0  0  0  0  0  0  0  0
    0.1190   -2.2830    0.0000 C   0  0  0  0  0  0  0  0  0  0  0  0
    0.3739   -1.4984    0.0000 C   0  0  0  0  0  0  0  0  0  0  0  0
    0.6538    1.5229    0.0000 N   0  0  0  0  0  0  0  0  0  0  0  0
    1.1387    2.1904    0.0000 N   0  0  0  0  0  0  0  0  0  0  0  0
    1.9233    1.9354    0.0000 C   0  0  0  0  0  0  0  0  0  0  0  0
    2.6378    2.3479    0.0000 C   0  0  0  0  0  0  0  0  0  0  0  0
    4.0668    3.1729    0.0000 C   0  0  0  0  0  0  0  0  0  0  0  0
  1  2  1  0  0  0  0
  2  3  1  0  0  0  0
  3  4  4  0  0  0  0
  4  5  4  0  0  0  0
  5  6  4  0  0  0  0
  6  7  4  0  0  0  0
  7  8  1  0  0  0  0
  8  9  4  0  0  0  0
  9 10  4  0  0  0  0
 10 11  4  0  0  0  0
 11 12  4  0  0  0  0
 12 13  1  0  0  0  0
 13 14  1  0  0  0  0
 14 15  2  0  0  0  0
 14 16  1  0  0  0  0
 16 17  1  0  0  0  0
 17 18  1  0  0  0  0
 18 19  1  0  0  0  0
 19 20  1  0  0  0  0
 20 21  2  0  0  0  0
 20 22  1  0  0  0  0
 22 23  1  0  0  0  0
 19 24  1  0  0  0  0
 24 25  1  0  0  0  0
 16 25  1  0  0  0  0
 12 26  4  0  0  0  0
 26 27  4  0  0  0  0
 27 28  4  0  0  0  0
 11 28  4  0  0  0  0
 28 29  4  0  0  0  0
  8 29  4  0  0  0  0
  7 30  4  0  0  0  0
  3 30  4  0  0  0  0
M  STY  1   1 DAT
M  SAL   1  1  27
M  SDT   1 MRV_IMPLICIT_H                                        
M  SDD   1     0.5304   -0.4125    DR    ALL  0       0  
M  SED   1 IMPL_H1
M  END
>  <Molecule ChEMBL ID>
CHEMBL4784481

>  <Compound Key>
15t

>  <Document ChEMBL ID>
CHEMBL4765277

>  <HDAC1>
0

$$$$

  Mrv1808 03272221002D          

 25 28  0  0  0  0            999 V2000
    4.2575   -0.8137    0.0000 C   0  0  0  0  0  0  0  0  0  0  0  0
    3.7054   -0.2006    0.0000 N   0  0  0  0  0  0  0  0  0  0  0  0
    3.9604    0.5840    0.0000 C   0  0  0  0  0  0  0  0  0  0  0  0
    3.4084    1.1971    0.0000 C   0  0  0  0  0  0  0  0  0  0  0  0
    2.6014    1.0256    0.0000 C   0  0  0  0  0  0  0  0  0  0  0  0
    2.3464    0.2410    0.0000 C   0  0  0  0  0  0  0  0  0  0  0  0
    1.5214    0.2410    0.0000 C   0  0  0  0  0  0  0  0  0  0  0  0
    0.9694   -0.3721    0.0000 C   0  0  0  0  0  0  0  0  0  0  0  0
    0.1624   -0.2006    0.0000 C   0  0  0  0  0  0  0  0  0  0  0  0
   -0.0925    0.5840    0.0000 C   0  0  0  0  0  0  0  0  0  0  0  0
    0.4595    1.1971    0.0000 C   0  0  0  0  0  0  0  0  0  0  0  0
    1.2665    1.0256    0.0000 C   0  0  0  0  0  0  0  0  0  0  0  0
    1.9339    1.5105    0.0000 N   0  0  0  0  0  0  0  0  0  0  0  0
    1.9339    2.3355    0.0000 C   0  0  0  0  0  0  0  0  0  0  0  0
    2.6484    2.7480    0.0000 C   0  0  0  0  0  0  0  0  0  0  0  0
    2.6484    3.5730    0.0000 C   0  0  0  0  0  0  0  0  0  0  0  0
    3.3629    3.9855    0.0000 C   0  0  0  0  0  0  0  0  0  0  0  0
    4.0774    3.5730    0.0000 C   0  0  0  0  0  0  0  0  0  0  0  0
    4.7918    3.9855    0.0000 C   0  0  0  0  0  0  0  0  0  0  0  0
    4.7918    4.8105    0.0000 O   0  0  0  0  0  0  0  0  0  0  0  0
    5.5063    3.5730    0.0000 N   0  0  0  0  0  0  0  0  0  0  0  0
    6.2208    3.9855    0.0000 O   0  0  0  0  0  0  0  0  0  0  0  0
    4.0774    2.7480    0.0000 C   0  0  0  0  0  0  0  0  0  0  0  0
    3.3629    2.3355    0.0000 C   0  0  0  0  0  0  0  0  0  0  0  0
    2.8985   -0.3721    0.0000 C   0  0  0  0  0  0  0  0  0  0  0  0
  1  2  1  0  0  0  0
  2  3  1  0  0  0  0
  3  4  1  0  0  0  0
  4  5  1  0  0  0  0
  5  6  4  0  0  0  0
  6  7  4  0  0  0  0
  7  8  4  0  0  0  0
  8  9  4  0  0  0  0
  9 10  4  0  0  0  0
 10 11  4  0  0  0  0
 11 12  4  0  0  0  0
  7 12  4  0  0  0  0
 12 13  4  0  0  0  0
  5 13  4  0  0  0  0
 13 14  1  0  0  0  0
 14 15  1  0  0  0  0
 15 16  4  0  0  0  0
 16 17  4  0  0  0  0
 17 18  4  0  0  0  0
 18 19  1  0  0  0  0
 19 20  2  0  0  0  0
 19 21  1  0  0  0  0
 21 22  1  0  0  0  0
 18 23  4  0  0  0  0
 23 24  4  0  0  0  0
 15 24  4  0  0  0  0
  6 25  1  0  0  0  0
  2 25  1  0  0  0  0
M  END
>  <Molecule ChEMBL ID>
CHEMBL2018302

>  <Compound Key>
Tubastatin A

>  <Document ChEMBL ID>
CHEMBL3769398

>  <HDAC1>
0

$$$$

  Mrv1808 03272221002D          

 36 38  0  0  1  0            999 V2000
   -3.1454   -3.7760    0.0000 C   0  0  0  0  0  0  0  0  0  0  0  0
   -2.4309   -4.1885    0.0000 C   0  0  0  0  0  0  0  0  0  0  0  0
   -2.4309   -5.0135    0.0000 O   0  0  0  0  0  0  0  0  0  0  0  0
   -1.7165   -3.7760    0.0000 S   0  0  0  0  0  0  0  0  0  0  0  0
   -1.0020   -4.1885    0.0000 C   0  0  0  0  0  0  0  0  0  0  0  0
   -0.2875   -3.7760    0.0000 C   0  0  0  0  0  0  0  0  0  0  0  0
    0.4270   -4.1885    0.0000 C   0  0  0  0  0  0  0  0  0  0  0  0
    1.1414   -3.7760    0.0000 C   0  0  0  0  0  0  0  0  0  0  0  0
    1.8559   -4.1885    0.0000 C   0  0  2  0  0  0  0  0  0  0  0  0
    2.4145   -3.5470    0.0000 C   0  0  0  0  0  0  0  0  0  0  0  0
    3.1692   -3.1465    0.0000 C   0  0  0  0  0  0  0  0  0  0  0  0
    2.9243   -2.3587    0.0000 O   0  0  0  0  0  0  0  0  0  0  0  0
    4.0203   -3.0482    0.0000 N   0  0  0  0  0  0  0  0  0  0  0  0
    4.8417   -3.2953    0.0000 C   0  0  0  0  0  0  0  0  0  0  0  0
    5.3947   -3.9505    0.0000 C   0  0  0  0  0  0  0  0  0  0  0  0
    6.1710   -4.2886    0.0000 C   0  0  0  0  0  0  0  0  0  0  0  0
    6.2798   -5.1199    0.0000 C   0  0  0  0  0  0  0  0  0  0  0  0
    5.6191   -5.6451    0.0000 C   0  0  0  0  0  0  0  0  0  0  0  0
    4.8584   -5.2915    0.0000 C   0  0  0  0  0  0  0  0  0  0  0  0
    4.7478   -4.4772    0.0000 C   0  0  0  0  0  0  0  0  0  0  0  0
    5.3473   -6.4729    0.0000 C   0  0  0  0  0  0  0  0  0  0  0  0
    4.5035   -6.5420    0.0000 N   0  0  0  0  0  0  0  0  0  0  0  0
    4.2603   -7.3446    0.0000 C   0  0  1  0  0  0  0  0  0  0  0  0
    4.0607   -8.1451    0.0000 C   0  0  0  0  0  0  0  0  0  0  0  0
    4.9743   -7.7899    0.0000 C   0  0  0  0  0  0  0  0  0  0  0  0
    5.6317   -7.2721    0.0000 S   0  0  0  0  0  0  0  0  0  0  0  0
    3.4106   -7.4032    0.0000 C   0  0  0  0  0  0  0  0  0  0  0  0
    3.3145   -8.2226    0.0000 O   0  0  0  0  0  0  0  0  0  0  0  0
    2.6072   -7.1527    0.0000 N   0  0  0  0  0  0  0  0  0  0  0  0
    1.9826   -6.5894    0.0000 C   0  0  1  0  0  0  0  0  0  0  0  0
    1.3199   -7.0807    0.0000 C   0  0  0  0  0  0  0  0  0  0  0  0
    0.5630   -6.7525    0.0000 C   0  0  0  0  0  0  0  0  0  0  0  0
    1.4140   -7.9004    0.0000 C   0  0  0  0  0  0  0  0  0  0  0  0
    1.6251   -5.8278    0.0000 C   0  0  0  0  0  0  0  0  0  0  0  0
    0.8250   -6.0288    0.0000 O   0  0  0  0  0  0  0  0  0  0  0  0
    1.5805   -4.9906    0.0000 O   0  0  0  0  0  0  0  0  0  0  0  0
  1  2  1  0  0  0  0
  2  3  2  0  0  0  0
  2  4  1  0  0  0  0
  4  5  1  0  0  0  0
  5  6  1  0  0  0  0
  6  7  1  0  0  0  0
  7  8  2  0  0  0  0
  9  8  1  6  0  0  0
  9 10  1  0  0  0  0
 10 11  1  0  0  0  0
 11 12  2  0  0  0  0
 11 13  1  0  0  0  0
 13 14  1  0  0  0  0
 14 15  1  0  0  0  0
 15 16  4  0  0  0  0
 16 17  4  0  0  0  0
 17 18  4  0  0  0  0
 18 19  4  0  0  0  0
 19 20  4  0  0  0  0
 15 20  4  0  0  0  0
 18 21  1  0  0  0  0
 21 22  2  0  0  0  0
 22 23  1  0  0  0  0
 23 24  1  6  0  0  0
 23 25  1  0  0  0  0
 25 26  1  0  0  0  0
 21 26  1  0  0  0  0
 23 27  1  0  0  0  0
 27 28  2  0  0  0  0
 27 29  1  0  0  0  0
 29 30  1  0  0  0  0
 30 31  1  1  0  0  0
 31 32  1  0  0  0  0
 31 33  1  0  0  0  0
 30 34  1  0  0  0  0
 34 35  2  0  0  0  0
 34 36  1  0  0  0  0
  9 36  1  0  0  0  0
M  END
>  <Molecule ChEMBL ID>
CHEMBL3771206

>  <Compound Key>
SD-L-256

>  <Document ChEMBL ID>
CHEMBL3769398

>  <HDAC1>
0

$$$$

  Mrv1808 03272221002D          

 21 22  0  0  0  0            999 V2000
    2.1434   -1.2375    0.0000 O   0  0  0  0  0  0  0  0  0  0  0  0
    1.4289   -1.6500    0.0000 C   0  0  0  0  0  0  0  0  0  0  0  0
    1.4289   -2.4750    0.0000 C   0  0  0  0  0  0  0  0  0  0  0  0
    0.7145   -2.8875    0.0000 C   0  0  0  0  0  0  0  0  0  0  0  0
    0.7145   -3.7125    0.0000 C   0  0  0  0  0  0  0  0  0  0  0  0
    1.4289   -4.1250    0.0000 C   0  0  0  0  0  0  0  0  0  0  0  0
    1.4289   -4.9500    0.0000 C   0  0  0  0  0  0  0  0  0  0  0  0
    0.7145   -5.3625    0.0000 C   0  0  0  0  0  0  0  0  0  0  0  0
    0.0000   -4.9500    0.0000 C   0  0  0  0  0  0  0  0  0  0  0  0
   -0.7145   -5.3625    0.0000 C   0  0  0  0  0  0  0  0  0  0  0  0
   -1.4289   -4.9500    0.0000 O   0  0  0  0  0  0  0  0  0  0  0  0
   -0.7145   -6.1875    0.0000 N   0  0  0  0  0  0  0  0  0  0  0  0
   -1.4289   -6.6000    0.0000 O   0  0  0  0  0  0  0  0  0  0  0  0
    0.0000   -4.1250    0.0000 C   0  0  0  0  0  0  0  0  0  0  0  0
    0.7145   -1.2375    0.0000 N   0  0  0  0  0  0  0  0  0  0  0  0
    0.7145   -0.4125    0.0000 C   0  0  0  0  0  0  0  0  0  0  0  0
    0.0000    0.0000    0.0000 C   0  0  0  0  0  0  0  0  0  0  0  0
    0.0000    0.8250    0.0000 C   0  0  0  0  0  0  0  0  0  0  0  0
    0.7145    1.2375    0.0000 C   0  0  0  0  0  0  0  0  0  0  0  0
    1.4289    0.8250    0.0000 C   0  0  0  0  0  0  0  0  0  0  0  0
    1.4289   -0.0000    0.0000 C   0  0  0  0  0  0  0  0  0  0  0  0
  1  2  2  0  0  0  0
  2  3  1  0  0  0  0
  3  4  2  0  0  0  0
  4  5  1  0  0  0  0
  5  6  4  0  0  0  0
  6  7  4  0  0  0  0
  7  8  4  0  0  0  0
  8  9  4  0  0  0  0
  9 10  1  0  0  0  0
 10 11  2  0  0  0  0
 10 12  1  0  0  0  0
 12 13  1  0  0  0  0
  9 14  4  0  0  0  0
  5 14  4  0  0  0  0
  2 15  1  0  0  0  0
 15 16  1  0  0  0  0
 16 17  4  0  0  0  0
 17 18  4  0  0  0  0
 18 19  4  0  0  0  0
 19 20  4  0  0  0  0
 20 21  4  0  0  0  0
 16 21  4  0  0  0  0
M  END
>  <Molecule ChEMBL ID>
CHEMBL2381524

>  <Compound Key>
10

>  <Document ChEMBL ID>
CHEMBL2380312

>  <HDAC1>
0

$$$$

  Mrv1808 03272221002D          

 37 41  0  0  0  0            999 V2000
    0.0000   -5.7750    0.0000 C   0  0  0  0  0  0  0  0  0  0  0  0
    0.0000   -4.9500    0.0000 C   0  0  0  0  0  0  0  0  0  0  0  0
    0.0000   -4.1250    0.0000 C   0  0  0  0  0  0  0  0  0  0  0  0
   -0.7145   -3.7125    0.0000 C   0  0  0  0  0  0  0  0  0  0  0  0
   -0.7145   -2.8875    0.0000 C   0  0  0  0  0  0  0  0  0  0  0  0
    0.0000   -2.4750    0.0000 C   0  0  0  0  0  0  0  0  0  0  0  0
    0.7145   -2.8875    0.0000 C   0  0  0  0  0  0  0  0  0  0  0  0
    1.4289   -2.4750    0.0000 N   0  0  0  0  0  0  0  0  0  0  0  0
    1.4289   -1.6500    0.0000 C   0  0  0  0  0  0  0  0  0  0  0  0
    0.7145   -1.2375    0.0000 N   0  0  0  0  0  0  0  0  0  0  0  0
    0.7145   -0.4125    0.0000 C   0  0  0  0  0  0  0  0  0  0  0  0
    1.4289    0.0000    0.0000 N   0  0  0  0  0  0  0  0  0  0  0  0
    2.1434   -0.4125    0.0000 C   0  0  0  0  0  0  0  0  0  0  0  0
    2.8579    0.0000    0.0000 C   0  0  0  0  0  0  0  0  0  0  0  0
    3.5724   -0.4125    0.0000 C   0  0  0  0  0  0  0  0  0  0  0  0
    3.5724   -1.2375    0.0000 C   0  0  0  0  0  0  0  0  0  0  0  0
    4.2868   -1.6500    0.0000 N   0  0  0  0  0  0  0  0  0  0  0  0
    5.0013   -1.2375    0.0000 C   0  0  0  0  0  0  0  0  0  0  0  0
    5.7158   -1.6500    0.0000 O   0  0  0  0  0  0  0  0  0  0  0  0
    5.0013   -0.4125    0.0000 C   0  0  0  0  0  0  0  0  0  0  0  0
    4.3339    0.0724    0.0000 C   0  0  0  0  0  0  0  0  0  0  0  0
    4.5888    0.8570    0.0000 C   0  0  0  0  0  0  0  0  0  0  0  0
    5.4138    0.8570    0.0000 C   0  0  0  0  0  0  0  0  0  0  0  0
    5.8987    1.5245    0.0000 C   0  0  0  0  0  0  0  0  0  0  0  0
    6.7192    1.4382    0.0000 O   0  0  0  0  0  0  0  0  0  0  0  0
    5.5632    2.2782    0.0000 N   0  0  0  0  0  0  0  0  0  0  0  0
    6.0481    2.9456    0.0000 C   0  0  0  0  0  0  0  0  0  0  0  0
    5.7125    3.6993    0.0000 C   0  0  0  0  0  0  0  0  0  0  0  0
    6.1974    4.3667    0.0000 C   0  0  0  0  0  0  0  0  0  0  0  0
    7.0179    4.2805    0.0000 C   0  0  0  0  0  0  0  0  0  0  0  0
    7.3535    3.5268    0.0000 C   0  0  0  0  0  0  0  0  0  0  0  0
    6.8686    2.8594    0.0000 C   0  0  0  0  0  0  0  0  0  0  0  0
    7.2041    2.1057    0.0000 N   0  0  0  0  0  0  0  0  0  0  0  0
    5.6687    0.0724    0.0000 S   0  0  0  0  0  0  0  0  0  0  0  0
    2.8579   -1.6500    0.0000 C   0  0  0  0  0  0  0  0  0  0  0  0
    2.1434   -1.2375    0.0000 C   0  0  0  0  0  0  0  0  0  0  0  0
    0.7145   -3.7125    0.0000 C   0  0  0  0  0  0  0  0  0  0  0  0
  1  2  3  0  0  0  0
  2  3  1  0  0  0  0
  3  4  4  0  0  0  0
  4  5  4  0  0  0  0
  5  6  4  0  0  0  0
  6  7  4  0  0  0  0
  7  8  1  0  0  0  0
  8  9  1  0  0  0  0
  9 10  4  0  0  0  0
 10 11  4  0  0  0  0
 11 12  4  0  0  0  0
 12 13  4  0  0  0  0
 13 14  4  0  0  0  0
 14 15  4  0  0  0  0
 15 16  4  0  0  0  0
 16 17  1  0  0  0  0
 17 18  1  0  0  0  0
 18 19  2  0  0  0  0
 18 20  1  0  0  0  0
 20 21  4  0  0  0  0
 21 22  4  0  0  0  0
 22 23  4  0  0  0  0
 23 24  1  0  0  0  0
 24 25  2  0  0  0  0
 24 26  1  0  0  0  0
 26 27  1  0  0  0  0
 27 28  4  0  0  0  0
 28 29  4  0  0  0  0
 29 30  4  0  0  0  0
 30 31  4  0  0  0  0
 31 32  4  0  0  0  0
 27 32  4  0  0  0  0
 32 33  1  0  0  0  0
 23 34  4  0  0  0  0
 20 34  4  0  0  0  0
 16 35  4  0  0  0  0
 35 36  4  0  0  0  0
  9 36  4  0  0  0  0
 13 36  4  0  0  0  0
  7 37  4  0  0  0  0
  3 37  4  0  0  0  0
M  END
>  <Molecule ChEMBL ID>
CHEMBL3217997

>  <Compound Key>
7c

>  <Document ChEMBL ID>
CHEMBL3217617

>  <HDAC1>
0

$$$$

  Mrv1808 03272221002D          

 38 42  0  0  0  0            999 V2000
    0.0000   -5.7750    0.0000 C   0  0  0  0  0  0  0  0  0  0  0  0
    0.0000   -4.9500    0.0000 C   0  0  0  0  0  0  0  0  0  0  0  0
    0.0000   -4.1250    0.0000 C   0  0  0  0  0  0  0  0  0  0  0  0
   -0.7145   -3.7125    0.0000 C   0  0  0  0  0  0  0  0  0  0  0  0
   -0.7145   -2.8875    0.0000 C   0  0  0  0  0  0  0  0  0  0  0  0
    0.0000   -2.4750    0.0000 C   0  0  0  0  0  0  0  0  0  0  0  0
    0.7145   -2.8875    0.0000 C   0  0  0  0  0  0  0  0  0  0  0  0
    1.4289   -2.4750    0.0000 N   0  0  0  0  0  0  0  0  0  0  0  0
    1.4289   -1.6500    0.0000 C   0  0  0  0  0  0  0  0  0  0  0  0
    0.7145   -1.2375    0.0000 N   0  0  0  0  0  0  0  0  0  0  0  0
    0.7145   -0.4125    0.0000 C   0  0  0  0  0  0  0  0  0  0  0  0
    1.4289    0.0000    0.0000 N   0  0  0  0  0  0  0  0  0  0  0  0
    2.1434   -0.4125    0.0000 C   0  0  0  0  0  0  0  0  0  0  0  0
    2.8579    0.0000    0.0000 C   0  0  0  0  0  0  0  0  0  0  0  0
    3.5724   -0.4125    0.0000 C   0  0  0  0  0  0  0  0  0  0  0  0
    3.5724   -1.2375    0.0000 C   0  0  0  0  0  0  0  0  0  0  0  0
    4.2868   -1.6500    0.0000 N   0  0  0  0  0  0  0  0  0  0  0  0
    5.0013   -1.2375    0.0000 C   0  0  0  0  0  0  0  0  0  0  0  0
    5.0013   -0.4125    0.0000 O   0  0  0  0  0  0  0  0  0  0  0  0
    5.7158   -1.6500    0.0000 C   0  0  0  0  0  0  0  0  0  0  0  0
    6.4302   -1.2375    0.0000 C   0  0  0  0  0  0  0  0  0  0  0  0
    7.1447   -1.6500    0.0000 C   0  0  0  0  0  0  0  0  0  0  0  0
    7.1447   -2.4750    0.0000 C   0  0  0  0  0  0  0  0  0  0  0  0
    7.8592   -2.8875    0.0000 C   0  0  0  0  0  0  0  0  0  0  0  0
    7.8592   -3.7125    0.0000 O   0  0  0  0  0  0  0  0  0  0  0  0
    8.5737   -2.4750    0.0000 N   0  0  0  0  0  0  0  0  0  0  0  0
    9.2881   -2.8875    0.0000 C   0  0  0  0  0  0  0  0  0  0  0  0
   10.0026   -2.4750    0.0000 C   0  0  0  0  0  0  0  0  0  0  0  0
   10.7171   -2.8875    0.0000 C   0  0  0  0  0  0  0  0  0  0  0  0
   10.7171   -3.7125    0.0000 C   0  0  0  0  0  0  0  0  0  0  0  0
   10.0026   -4.1250    0.0000 C   0  0  0  0  0  0  0  0  0  0  0  0
    9.2881   -3.7125    0.0000 C   0  0  0  0  0  0  0  0  0  0  0  0
    8.5737   -4.1250    0.0000 N   0  0  0  0  0  0  0  0  0  0  0  0
    6.4302   -2.8875    0.0000 C   0  0  0  0  0  0  0  0  0  0  0  0
    5.7158   -2.4750    0.0000 C   0  0  0  0  0  0  0  0  0  0  0  0
    2.8579   -1.6500    0.0000 C   0  0  0  0  0  0  0  0  0  0  0  0
    2.1434   -1.2375    0.0000 C   0  0  0  0  0  0  0  0  0  0  0  0
    0.7145   -3.7125    0.0000 C   0  0  0  0  0  0  0  0  0  0  0  0
  1  2  3  0  0  0  0
  2  3  1  0  0  0  0
  3  4  4  0  0  0  0
  4  5  4  0  0  0  0
  5  6  4  0  0  0  0
  6  7  4  0  0  0  0
  7  8  1  0  0  0  0
  8  9  1  0  0  0  0
  9 10  4  0  0  0  0
 10 11  4  0  0  0  0
 11 12  4  0  0  0  0
 12 13  4  0  0  0  0
 13 14  4  0  0  0  0
 14 15  4  0  0  0  0
 15 16  4  0  0  0  0
 16 17  1  0  0  0  0
 17 18  1  0  0  0  0
 18 19  2  0  0  0  0
 18 20  1  0  0  0  0
 20 21  4  0  0  0  0
 21 22  4  0  0  0  0
 22 23  4  0  0  0  0
 23 24  1  0  0  0  0
 24 25  2  0  0  0  0
 24 26  1  0  0  0  0
 26 27  1  0  0  0  0
 27 28  4  0  0  0  0
 28 29  4  0  0  0  0
 29 30  4  0  0  0  0
 30 31  4  0  0  0  0
 31 32  4  0  0  0  0
 27 32  4  0  0  0  0
 32 33  1  0  0  0  0
 23 34  4  0  0  0  0
 34 35  4  0  0  0  0
 20 35  4  0  0  0  0
 16 36  4  0  0  0  0
 36 37  4  0  0  0  0
  9 37  4  0  0  0  0
 13 37  4  0  0  0  0
  7 38  4  0  0  0  0
  3 38  4  0  0  0  0
M  END
>  <Molecule ChEMBL ID>
CHEMBL3217999

>  <Compound Key>
7a

>  <Document ChEMBL ID>
CHEMBL3217617

>  <HDAC1>
0

$$$$

  Mrv1808 03272221002D          

 21 22  0  0  0  0            999 V2000
   -2.1434   -3.7125    0.0000 O   0  0  0  0  0  0  0  0  0  0  0  0
   -2.1434   -2.8875    0.0000 C   0  0  0  0  0  0  0  0  0  0  0  0
   -2.8579   -2.4750    0.0000 N   0  0  0  0  0  0  0  0  0  0  0  0
   -3.5724   -2.8875    0.0000 O   0  0  0  0  0  0  0  0  0  0  0  0
   -1.4289   -2.4750    0.0000 C   0  0  0  0  0  0  0  0  0  0  0  0
   -1.4289   -1.6500    0.0000 C   0  0  0  0  0  0  0  0  0  0  0  0
   -0.7145   -1.2375    0.0000 C   0  0  0  0  0  0  0  0  0  0  0  0
    0.0000   -1.6500    0.0000 C   0  0  0  0  0  0  0  0  0  0  0  0
    0.0000   -2.4750    0.0000 C   0  0  0  0  0  0  0  0  0  0  0  0
    0.7145   -2.8875    0.0000 C   0  0  0  0  0  0  0  0  0  0  0  0
    0.7145   -3.7125    0.0000 O   0  0  0  0  0  0  0  0  0  0  0  0
    1.4289   -2.4750    0.0000 N   0  0  0  0  0  0  0  0  0  0  0  0
    2.1434   -2.8875    0.0000 C   0  0  0  0  0  0  0  0  0  0  0  0
    2.8579   -2.4750    0.0000 C   0  0  0  0  0  0  0  0  0  0  0  0
    3.5724   -2.8875    0.0000 C   0  0  0  0  0  0  0  0  0  0  0  0
    4.2868   -2.4750    0.0000 C   0  0  0  0  0  0  0  0  0  0  0  0
    5.0013   -2.8875    0.0000 C   0  0  0  0  0  0  0  0  0  0  0  0
    5.0013   -3.7125    0.0000 C   0  0  0  0  0  0  0  0  0  0  0  0
    4.2868   -4.1250    0.0000 C   0  0  0  0  0  0  0  0  0  0  0  0
    3.5724   -3.7125    0.0000 C   0  0  0  0  0  0  0  0  0  0  0  0
   -0.7145   -2.8875    0.0000 C   0  0  0  0  0  0  0  0  0  0  0  0
  1  2  2  0  0  0  0
  2  3  1  0  0  0  0
  3  4  1  0  0  0  0
  2  5  1  0  0  0  0
  5  6  4  0  0  0  0
  6  7  4  0  0  0  0
  7  8  4  0  0  0  0
  8  9  4  0  0  0  0
  9 10  1  0  0  0  0
 10 11  2  0  0  0  0
 10 12  1  0  0  0  0
 12 13  1  0  0  0  0
 13 14  1  0  0  0  0
 14 15  1  0  0  0  0
 15 16  4  0  0  0  0
 16 17  4  0  0  0  0
 17 18  4  0  0  0  0
 18 19  4  0  0  0  0
 19 20  4  0  0  0  0
 15 20  4  0  0  0  0
  9 21  4  0  0  0  0
  5 21  4  0  0  0  0
M  END
>  <Molecule ChEMBL ID>
CHEMBL2381517

>  <Compound Key>
3, BRD73594

>  <Document ChEMBL ID>
CHEMBL2380312

>  <HDAC1>
0

$$$$

  Mrv1808 03272221002D          

 36 38  0  0  1  0            999 V2000
    2.1434   -2.8875    0.0000 C   0  0  0  0  0  0  0  0  0  0  0  0
    1.4289   -2.4750    0.0000 C   0  0  0  0  0  0  0  0  0  0  0  0
    0.7145   -2.8875    0.0000 C   0  0  0  0  0  0  0  0  0  0  0  0
    1.4289   -1.6500    0.0000 C   0  0  2  0  0  0  0  0  0  0  0  0
    0.7145   -1.2375    0.0000 N   0  0  0  0  0  0  0  0  0  0  0  0
    0.6753   -0.3355    0.0000 C   0  0  0  0  0  0  0  0  0  0  0  0
    1.4389   -0.0232    0.0000 O   0  0  0  0  0  0  0  0  0  0  0  0
    0.1232    0.2775    0.0000 C   0  0  2  0  0  0  0  0  0  0  0  0
   -0.6837    0.4491    0.0000 C   0  0  0  0  0  0  0  0  0  0  0  0
   -0.7700    1.2695    0.0000 C   0  0  0  0  0  0  0  0  0  0  0  0
   -0.0163    1.6051    0.0000 C   0  0  0  0  0  0  0  0  0  0  0  0
    0.5357    0.9920    0.0000 N   0  0  0  0  0  0  0  0  0  0  0  0
    1.3427    0.8205    0.0000 C   0  0  0  0  0  0  0  0  0  0  0  0
    1.7012    0.0774    0.0000 O   0  0  0  0  0  0  0  0  0  0  0  0
    2.1434    1.2375    0.0000 C   0  0  1  0  0  0  0  0  0  0  0  0
    2.3149    2.0445    0.0000 C   0  0  0  0  0  0  0  0  0  0  0  0
    3.1354    2.1307    0.0000 C   0  0  0  0  0  0  0  0  0  0  0  0
    3.4710    1.3770    0.0000 C   0  0  0  0  0  0  0  0  0  0  0  0
    2.8579    0.8250    0.0000 N   0  0  0  0  0  0  0  0  0  0  0  0
    2.8579    0.0000    0.0000 C   0  0  0  0  0  0  0  0  0  0  0  0
    2.1434   -0.4125    0.0000 O   0  0  0  0  0  0  0  0  0  0  0  0
    3.5724   -0.4125    0.0000 C   0  0  0  0  0  0  0  0  0  0  0  0
    3.5724   -1.2375    0.0000 C   0  0  1  0  0  0  0  0  0  0  0  0
    4.2868   -1.6500    0.0000 C   0  0  0  0  0  0  0  0  0  0  0  0
    4.2868   -2.4750    0.0000 O   0  0  0  0  0  0  0  0  0  0  0  0
    5.0013   -1.2375    0.0000 N   0  0  0  0  0  0  0  0  0  0  0  0
    5.7158   -1.6500    0.0000 C   0  0  0  0  0  0  0  0  0  0  0  0
    6.4302   -1.2375    0.0000 C   0  0  0  0  0  0  0  0  0  0  0  0
    7.1447   -1.6500    0.0000 C   0  0  0  0  0  0  0  0  0  0  0  0
    7.8592   -1.2375    0.0000 C   0  0  0  0  0  0  0  0  0  0  0  0
    7.8592   -0.4125    0.0000 O   0  0  0  0  0  0  0  0  0  0  0  0
    8.5737   -1.6500    0.0000 N   0  0  0  0  0  0  0  0  0  0  0  0
    9.2881   -1.2375    0.0000 O   0  0  0  0  0  0  0  0  0  0  0  0
    2.8579   -1.6500    0.0000 N   0  0  0  0  0  0  0  0  0  0  0  0
    2.1434   -1.2375    0.0000 C   0  0  0  0  0  0  0  0  0  0  0  0
    1.6585   -0.5701    0.0000 O   0  0  0  0  0  0  0  0  0  0  0  0
  1  2  1  0  0  0  0
  2  3  1  0  0  0  0
  4  2  1  6  0  0  0
  4  5  1  0  0  0  0
  5  6  1  0  0  0  0
  6  7  2  0  0  0  0
  8  6  1  0  0  0  0
  8  9  1  0  0  0  0
  9 10  1  0  0  0  0
 10 11  1  0  0  0  0
 11 12  1  0  0  0  0
  8 12  1  6  0  0  0
 12 13  1  0  0  0  0
 13 14  2  0  0  0  0
 15 13  1  0  0  0  0
 15 16  1  0  0  0  0
 16 17  1  0  0  0  0
 17 18  1  0  0  0  0
 18 19  1  0  0  0  0
 15 19  1  1  0  0  0
 19 20  1  0  0  0  0
 20 21  2  0  0  0  0
 20 22  1  0  0  0  0
 23 22  1  0  0  0  0
 23 24  1  1  0  0  0
 24 25  2  0  0  0  0
 24 26  1  0  0  0  0
 26 27  1  0  0  0  0
 27 28  1  0  0  0  0
 28 29  1  0  0  0  0
 29 30  1  0  0  0  0
 30 31  2  0  0  0  0
 30 32  1  0  0  0  0
 32 33  1  0  0  0  0
 23 34  1  0  0  0  0
 34 35  1  0  0  0  0
  4 35  1  0  0  0  0
 35 36  2  0  0  0  0
M  END
>  <Molecule ChEMBL ID>
CHEMBL3769491

>  <Compound Key>
14a

>  <Document ChEMBL ID>
CHEMBL3769398

>  <HDAC1>
0

$$$$
